<?xml version="1.0" encoding="UTF-8"?>

<!-- generated on 2025-12-02 16:59:46.430975 by Eclipse SUMO osmWebWizard.py v1_25_0+0000-ac6c5a6752d
<configuration>
    <net-file value="C:\Users\akinw\2025-12-02-16-58-29\osm.net.xml.gz"/>
    <output-trip-file value="C:\Users\akinw\2025-12-02-16-58-29\osm.pedestrian.trips.xml"/>
    <route-file value="C:\Users\akinw\2025-12-02-16-58-29\osm.pedestrian.rou.xml"/>
    <pedestrians value="True"/>
    <prefix value="ped"/>
    <vehicle-class value="pedestrian"/>
    <fringe-factor value="1"/>
    <seed value="46"/>
    <max-distance value="2000.0"/>
    <insertion-density value="300.0"/>
</configuration>
-->

<!-- generated on 2025-12-02T16:59:44.752770+08:00 by Eclipse SUMO duarouter 1.25.0
<duarouterConfiguration xmlns:xsi="http://www.w3.org/2001/XMLSchema-instance" xsi:noNamespaceSchemaLocation="http://sumo.dlr.de/xsd/duarouterConfiguration.xsd">

    <input>
        <net-file value="C:\Users\akinw\2025-12-02-16-58-29\osm.net.xml.gz"/>
        <route-files value="C:\Users\akinw\2025-12-02-16-58-29\osm.pedestrian.trips.xml"/>
    </input>

    <output>
        <output-file value="C:\Users\akinw\2025-12-02-16-58-29\osm.pedestrian.rou.xml"/>
        <alternatives-output value="NUL"/>
    </output>

    <time>
        <begin value="0.0"/>
        <end value="3600.0"/>
    </time>

    <report>
        <no-warnings value="true"/>
        <ignore-errors value="true"/>
        <no-step-log value="true"/>
    </report>

</duarouterConfiguration>
-->

<routes xmlns:xsi="http://www.w3.org/2001/XMLSchema-instance" xsi:noNamespaceSchemaLocation="http://sumo.dlr.de/xsd/routes_file.xsd">
    <vType id="ped_pedestrian" vClass="pedestrian"/>
    <person id="ped10" type="ped_pedestrian" depart="1.95">
        <walk edges="116783922#0 -116783785#1 -116783785#2 -116783785#3 -116783785#4 -116783805#1 -116783909#8 -116783901#1"/>
    </person>
    <person id="ped18" type="ped_pedestrian" depart="3.52">
        <walk edges="178731160#3 178731159 178721636#18 178721636#19 178721636#20 -178737620"/>
    </person>
    <person id="ped28" type="ped_pedestrian" depart="5.47">
        <walk edges="-116783834#0 -116783909#6 -116783909#7 -116783909#8 -116783805#1 -116783785#4 -116783785#3 -116783861#1"/>
    </person>
    <person id="ped52" type="ped_pedestrian" depart="10.16">
        <walk edges="178737605#0 178737605#1 178737605#2 178737605#3 178737605#4 761403176#0 761403176#1 761403176#2 761403176#3 761403176#4 513764740#7 513764740#6"/>
    </person>
    <person id="ped70" type="ped_pedestrian" depart="13.68">
        <walk edges="440478976#8 440429836#1 758019389#1 758019388#2 440429834#2"/>
    </person>
    <person id="ped88" type="ped_pedestrian" depart="17.20">
        <walk edges="564255372#4 -178737620 178721636#20 178721636#19 178721636#18 178721636#17 178721636#16 178719573#16 178719573#13 178721636#5 178721636#4 178721636#3 178721636#1 178721636#0 178719573#0 1303211752#2 1303211752#1 761403176#0 761403176#1 761403176#2 761403176#3 761403176#4 513764740#7 513764740#6 47152604#5"/>
    </person>
    <person id="ped115" type="ped_pedestrian" depart="22.48">
        <walk edges="1303211746 178719573#36 178719573#37 178719573#38 178725152#4 178725152#3 178725152#2 178725152#1 178725157 178719573#40 178719573#41 178719573#42 178719573#0 178721636#0 178721636#1 178721636#3 178721636#4 178721636#5 178719573#13 178719573#16 178721636#16 178721636#17 178721636#18 178801549#0 178801549#1 564255372#0 178801543#1 178801533"/>
    </person>
    <person id="ped131" type="ped_pedestrian" depart="25.60">
        <walk edges="161090905#3 513764740#2 -49076698#0"/>
    </person>
    <person id="ped151" type="ped_pedestrian" depart="29.51">
        <walk edges="440429836#32 436681710#3 436681710#4"/>
    </person>
    <person id="ped162" type="ped_pedestrian" depart="31.66">
        <walk edges="440429840#1 440429840#3 440429839 447882291 447882287#2"/>
    </person>
    <person id="ped213" type="ped_pedestrian" depart="41.63">
        <walk edges="116783757#0 -116783757#2 -116783757#3 -116783885#0"/>
    </person>
    <person id="ped245" type="ped_pedestrian" depart="47.88">
        <walk edges="133465385#3 133465371#0 303226971#1 303226971#0 303226971#4"/>
    </person>
    <person id="ped358" type="ped_pedestrian" depart="69.97">
        <walk edges="436681710#13 436681710#14"/>
    </person>
    <person id="ped390" type="ped_pedestrian" depart="76.22">
        <walk edges="178801532#0 178801542 178801541#0 178801543#3 564255372#2"/>
    </person>
    <person id="ped394" type="ped_pedestrian" depart="77.01">
        <walk edges="440439923 440429836#18 440429836#19 440429836#21 440429833#0 440429833#1 440429833#2 758019385#5 436681710#11 440429843#6"/>
    </person>
    <person id="ped403" type="ped_pedestrian" depart="78.76">
        <walk edges="178719573#34 178725158#1 178725158#0 178725152#3 178725152#2 178725152#1 178725157 178719573#40"/>
    </person>
    <person id="ped450" type="ped_pedestrian" depart="87.95">
        <walk edges="178719573#6 178719573#5 178721636#4 178721636#3 178721645#5 178721891#2 178721893"/>
    </person>
    <person id="ped505" type="ped_pedestrian" depart="98.70">
        <walk edges="116783935#0 -116783909#1 -116783909#2 -116783909#3 -116783909#4 -116783909#5 -116783909#6 116783918#0"/>
    </person>
    <person id="ped572" type="ped_pedestrian" depart="111.79">
        <walk edges="133465385#2 133465385#1 133465394#3"/>
    </person>
    <person id="ped574" type="ped_pedestrian" depart="112.19">
        <walk edges="758019385#2 758019388#0 436681710#1"/>
    </person>
    <person id="ped632" type="ped_pedestrian" depart="123.52">
        <walk edges="178725147#0 178725158#0 178725152#3 178725152#2 178725152#1 178725157 178719573#40 178719573#41 178719573#42 178719573#0 178721636#0 178721636#1 178721636#3 178721636#4 178721636#5 178719573#13 178719573#16 178721636#16 178721636#17 178721636#18 178801549#0 178801549#1 564255372#0 178801543#1 178801533 178702245 328764027#1"/>
    </person>
    <person id="ped643" type="ped_pedestrian" depart="125.67">
        <walk edges="39764607#2 513764740#7 761403176#4 761403176#3 761403176#2 761403176#1 761403176#0 1303211752#1 1303211752#2 178719573#0 178721636#0 178721636#1 178721636#3 178721636#4 178721636#5 178719573#13 178719573#16 178719573#23 178731161#0 178731161#1 178731160#0 178731160#1 178737614#1 178737619"/>
    </person>
    <person id="ped655" type="ped_pedestrian" depart="128.02">
        <walk edges="-640652969 640652970#2 640652970#3 640652970#4 640652970#5 116831877 -116831888 -116831881#7 -116831881#9"/>
    </person>
    <person id="ped661" type="ped_pedestrian" depart="129.19">
        <walk edges="178719573#26 178719573#25 178731158#0 178737621 178731161#0 178719573#23 178719573#16 178719573#13 178721636#5 178721636#4 178721636#3 178721636#1 178721636#0 178719573#0 178719573#42 178719573#41 178719573#40 178725157 178725152#1 39764174#0 161091601#0 161091601#1 161091601#2 178737605#2"/>
    </person>
    <person id="ped662" type="ped_pedestrian" depart="129.38">
        <walk edges="440429836#16 440429836#15 440429836#14 440429837#0 440478977#4 440429834#0 440439921#3 440439921#2 440439921#1 440429834#4 758019385#3 758019385#8 758019385#7 758019387#0 436681710#9"/>
    </person>
    <person id="ped663" type="ped_pedestrian" depart="129.58">
        <walk edges="436681710#3 440429836#32 440429836#31 436681710#5 440429843#0 758019387#2 758019386#1 440429832#0 440429836#23"/>
    </person>
    <person id="ped667" type="ped_pedestrian" depart="130.36">
        <walk edges="761643565#2 761643565#1 761643566 761643574#0"/>
    </person>
    <person id="ped672" type="ped_pedestrian" depart="131.34">
        <walk edges="758019387#1 758019387#0 758019385#7 758019385#8 758019385#2 758019388#0 758019388#1 758019389#0 440429835#4 440478977#9 440478977#10"/>
    </person>
    <person id="ped701" type="ped_pedestrian" depart="137.01">
        <walk edges="440429834#0 440429835#1 440478977#7 440429835#4 440478977#9 440429835#6 440478976#1 440478976#2 440429836#6"/>
    </person>
    <person id="ped725" type="ped_pedestrian" depart="141.70">
        <walk edges="178725445 564255349 564255367#1 564255363#1 1295952170 178721636#16 178719573#16 178719573#13 178721636#5 178721636#4 178721636#3 178721636#1 178721636#0 178719573#0 178719573#42 178719573#41 178719573#40 178725157 178725152#1 178725152#2 178725152#3 178725158#0"/>
    </person>
    <person id="ped731" type="ped_pedestrian" depart="142.87">
        <walk edges="479863110 479863111 479863112#0 479863112#1 246088748#1 246088748#0 133465408#2 133465408#1 133465408#0 745219316#2 745219316#1 745219316#0 303226971#3 133465387#0"/>
    </person>
    <person id="ped744" type="ped_pedestrian" depart="145.41">
        <walk edges="-757506899#2 -757506900#2 757506904"/>
    </person>
    <person id="ped790" type="ped_pedestrian" depart="154.40">
        <walk edges="-1211970166#6 -1211970166#5 -1211970166#4 -1211970166#3 -1211970166#2 -1211970166#1 1211978048#0"/>
    </person>
    <person id="ped803" type="ped_pedestrian" depart="156.94">
        <walk edges="178731160#1 178731160#0 178731161#1 178731161#0 178719573#23 178719573#16 178719573#13 178719573#12 178719573#11 178719573#10 178719573#9 178719573#8 178732950#2 178732947#0 178732947#1"/>
    </person>
    <person id="ped812" type="ped_pedestrian" depart="158.70">
        <walk edges="-116831883 116831887#1 -116831886#1 -116831880#1"/>
    </person>
    <person id="ped836" type="ped_pedestrian" depart="163.39">
        <walk edges="178731160#0 178731160#3 178731159 178721636#18 178801549#0 178801549#1 564255372#0 178801543#1 178801533 178702245 328764027#1 133465402 178702262#2 178702244#1"/>
    </person>
    <person id="ped845" type="ped_pedestrian" depart="165.15">
        <walk edges="440429834#3 440429834#4 758019385#3 758019385#8 758019385#7 758019385#6 440429832#2"/>
    </person>
    <person id="ped846" type="ped_pedestrian" depart="165.35">
        <walk edges="47152604#5 513764740#6 513764740#7 761403176#4 761403176#3 761403176#2 761403176#1 761403176#0 178737605#4 178737605#3 178737605#2 178737605#1 178737605#0"/>
    </person>
    <person id="ped848" type="ped_pedestrian" depart="165.74">
        <walk edges="116783892#4 -116783892#3 -116783885#1 -116783885#0"/>
    </person>
    <person id="ped873" type="ped_pedestrian" depart="170.62">
        <walk edges="178801543#2 178801543#1 564255372#0 178801549#1 178801549#0 178721636#18 178721636#17 178721636#16 178719573#16 178719573#13 178719573#12 178719573#11 178719573#10 178719573#9 178719573#8"/>
    </person>
    <person id="ped874" type="ped_pedestrian" depart="170.82">
        <walk edges="178723094 178721645#2 178721645#3 178721645#4 178721645#5 178721636#3 178721636#4 178721636#5 178719573#13 178719573#16 178719573#23 178731161#0 178737621 178731158#0 178719573#25 178719573#26 -178801537"/>
    </person>
    <person id="ped875" type="ped_pedestrian" depart="171.01">
        <walk edges="178721645#4 178721645#5 178721636#3 178721636#4 178721636#5 178719573#13 178719573#16 178721636#16 178721636#17 178721636#18 178801549#0 178801549#1 564255372#0 178801543#1 178801533 178702245"/>
    </person>
    <person id="ped894" type="ped_pedestrian" depart="174.73">
        <walk edges="440429836#14 440429836#13 440429836#12 440429836#11 440429836#10 440429836#9 440429836#8 440429836#7 440429836#6 440478976#3 440429836#1 440429836#0 440429836#32"/>
    </person>
    <person id="ped929" type="ped_pedestrian" depart="181.57">
        <walk edges="440429833#2 758019385#5 758019385#6 758019385#7 758019387#4 436681710#6"/>
    </person>
    <person id="ped955" type="ped_pedestrian" depart="186.65">
        <walk edges="513764740#5 513764740#6 513764740#7 761403176#4 761403176#3 761403176#2 761403176#1 761403176#0 1303211752#1 1303211752#2 178719573#0 178721636#0 178721636#1 178721636#3 178721636#4 178721636#5 178719573#13 178719573#16 178719573#23 178731161#0 178731161#1 178731160#0 178731160#1 178737614#1 178737614#0 178737610#2 178733291#3 178733291#2 178733291#1 178733291#0 178719573#29"/>
    </person>
    <person id="ped958" type="ped_pedestrian" depart="187.24">
        <walk edges="178702245 178801533 178801543#1 564255372#0 178801549#1 178801549#0 178721636#18 178721636#17 178721636#16 178719573#16 178719573#13 178721636#5 178721636#4 178721636#3 178721636#1 178721636#0 178719573#0 1303211752#2 1303211752#1 761403176#0 761403176#1 761403176#2 761403176#3 761403176#4 513764740#7 513764740#6 47152604#3 50417969"/>
    </person>
    <person id="ped960" type="ped_pedestrian" depart="187.63">
        <walk edges="178731158#0 178737621 178731161#0 178719573#23 178719573#16 178719573#13 178719573#12 178719573#11 178719573#10 178719573#9 178719573#8 178732950#2 178732947#0 178732948#1 178719573#6"/>
    </person>
    <person id="ped992" type="ped_pedestrian" depart="193.88">
        <walk edges="-116831888 -116831881#6 -116831881#5 -116831881#4 -116831881#3 116831880#0 -116831880#1"/>
    </person>
    <person id="ped1004" type="ped_pedestrian" depart="196.23">
        <walk edges="1353099733#2 734421214#5 257421488#6 257421488#5"/>
    </person>
    <person id="ped1015" type="ped_pedestrian" depart="198.38">
        <walk edges="178737621 178731158#1 178731160#0 178731160#3 178731159 178721636#18 178801549#0"/>
    </person>
    <person id="ped1022" type="ped_pedestrian" depart="199.74">
        <walk edges="436681710#12 758019385#6 758019385#7 758019385#8 758019385#2 758019388#0 758019388#1 758019389#0 440429835#4 440478977#9 440429835#6 440429835#7 440478977#11"/>
    </person>
    <person id="ped1048" type="ped_pedestrian" depart="204.83">
        <walk edges="440429835#7 440429835#6 440478977#9 440429835#4 758019389#0 758019388#1 758019388#0 758019385#2 758019385#8 758019387#4 436681710#6"/>
    </person>
    <person id="ped1105" type="ped_pedestrian" depart="215.97">
        <walk edges="440478977#16 440429836#12 440429836#13 440429837#0 440429837#4 440439921#5 440478974 440439922#1 440439922#0"/>
    </person>
    <person id="ped1122" type="ped_pedestrian" depart="219.29">
        <walk edges="1359525996 734421220#2 734421220#3 257421488#5"/>
    </person>
    <person id="ped1150" type="ped_pedestrian" depart="224.76">
        <walk edges="479863112#1 246088748#1 246088748#0 133465408#2 133465408#1 133465408#0 745219316#2 745219316#1 745219316#0 303226971#4 303226971#0"/>
    </person>
    <person id="ped1193" type="ped_pedestrian" depart="233.17">
        <walk edges="513764740#2 513764740#3 513764740#4 513764740#5 513764740#6 513764740#7 761403176#4 761403176#3 761403176#2 761403176#1 761403176#0 1303211752#1 1303211752#2 178719573#0 178721636#0 178721636#1 178721636#3 178721636#4 178721636#5 178719573#13 178719573#16 178721636#16 178721636#17 178721636#18 178801549#0 178801549#1 564255372#0 178801543#1 178801533 178702245 328764027#1 328764027#0 178702238"/>
    </person>
    <person id="ped1210" type="ped_pedestrian" depart="236.49">
        <walk edges="440429840#2 440429840#1 440429842 758019387#3 758019387#4 758019385#8 758019385#3 440429834#4 440439921#1 440439921#2 440439921#3 440429834#0 440429835#1"/>
    </person>
    <person id="ped1239" type="ped_pedestrian" depart="242.16">
        <walk edges="-451068211#1 -451068212#0 451068212#1"/>
    </person>
    <person id="ped1264" type="ped_pedestrian" depart="247.04">
        <walk edges="440439921#2 440439921#1 440439921#0 440439921#6"/>
    </person>
    <person id="ped1291" type="ped_pedestrian" depart="252.32">
        <walk edges="116837680 116837600"/>
    </person>
    <person id="ped1309" type="ped_pedestrian" depart="255.84">
        <walk edges="116783774#1 -116783909#4 -116783909#3 -116783818#1"/>
    </person>
    <person id="ped1316" type="ped_pedestrian" depart="257.21">
        <walk edges="436681710#10 436681710#11 758019385#5 440429833#2 440429833#1 440429833#0 440429836#21 440429836#19 440429836#18 440429836#17 440429836#16"/>
    </person>
    <person id="ped1334" type="ped_pedestrian" depart="260.72">
        <walk edges="447882287#2 447882291 440429839 440429840#3 440429842 758019387#2 758019386#1 440429832#0 440429836#24"/>
    </person>
    <person id="ped1338" type="ped_pedestrian" depart="261.51">
        <walk edges="1211978027#0 -1211970166#4 -1211970166#5 -1211970166#6 -1211970166#7 -1211970166#8 1211970166#9"/>
    </person>
    <person id="ped1363" type="ped_pedestrian" depart="266.39">
        <walk edges="-478205127#0 513764740#5 513764740#6 513764740#7 761403176#4 761403176#3 761403176#2 761403176#1 761403176#0 1303211752#1 1303211752#2 178719573#0 178721636#0 178721636#1 178721636#3 178721636#4 178721636#5 178721636#6"/>
    </person>
    <person id="ped1379" type="ped_pedestrian" depart="269.52">
        <walk edges="133465386#1 133465388 133465394#1"/>
    </person>
    <person id="ped1389" type="ped_pedestrian" depart="271.47">
        <walk edges="178721892 178721891#0 178721645#0 178721636#1 178721636#3 178721636#4 178719573#5"/>
    </person>
    <person id="ped1395" type="ped_pedestrian" depart="272.65">
        <walk edges="178723099 178721645#3 178721645#4"/>
    </person>
    <person id="ped1398" type="ped_pedestrian" depart="273.23">
        <walk edges="436681710#3 440429836#32 758019385#1 758019385#2 758019385#8 758019385#7 758019385#6 758019385#5"/>
    </person>
    <person id="ped1428" type="ped_pedestrian" depart="279.10">
        <walk edges="734421236#1 734421236#0 734421235#1 320104836#7 320104836#6 320104836#5 734421215#0 1359525998 1353099735#1 734421214#1 734421214#0 320104836#1 320104836#0 734421213"/>
    </person>
    <person id="ped1437" type="ped_pedestrian" depart="280.85">
        <walk edges="1255099067 39921470#1 351188759#4 351188759#3 351188760#0 351188760#1 351188759#0"/>
    </person>
    <person id="ped1439" type="ped_pedestrian" depart="281.25">
        <walk edges="734421236#1 734421236#0 734421235#1 320104836#7 734421224#0 734421224#2 734421224#3 257421488#3"/>
    </person>
    <person id="ped1463" type="ped_pedestrian" depart="285.94">
        <walk edges="178719573#36 178719573#37 178719573#38 178725152#4 178725152#3 178725152#2 178725152#1 178725157 178719573#40 178719573#41 178719573#42 178719573#0 178721636#0 178721636#1 178721636#3 178721636#4 178721636#5 178719573#13 178719573#16 178721636#16 178721636#17 178721636#18 178801549#0 178801549#1 564255372#0 178801543#1 178801543#2 178801541#1"/>
    </person>
    <person id="ped1465" type="ped_pedestrian" depart="286.33">
        <walk edges="178702238 328764027#0 328764027#1 178702245 178801533 178801543#1 564255372#0 178801549#1 178801549#0 178721636#18 178721636#17 178721636#16 178719573#16 178719573#13 178721636#5 178721636#4 178721636#3 178721645#5 178721645#4 178721645#3 178721645#2"/>
    </person>
    <person id="ped1479" type="ped_pedestrian" depart="289.06">
        <walk edges="-440024351#5 -440024351#4 -440024351#3 -440024351#2 -440024351#1 -440024351#0 -440024343#1 440146337"/>
    </person>
    <person id="ped1487" type="ped_pedestrian" depart="290.63">
        <walk edges="178801530 178801531 161091601#0 39764174#0 178725152#1 178725152#0 178723091#2 178723091#3 178722057#1 178723098#0 178723100#0"/>
    </person>
    <person id="ped1503" type="ped_pedestrian" depart="293.75">
        <walk edges="178732948#1 178732947#1 178719573#5 178721636#4 178721636#3 178721636#1 178721636#0 178719573#0 1303211752#2 1303211752#1 761403176#0 761403176#1 761403176#2 761403176#3 761403176#4 513764740#7 39764607#1"/>
    </person>
    <person id="ped1549" type="ped_pedestrian" depart="302.74">
        <walk edges="758019387#4 758019385#8 758019385#2 758019388#0 758019388#1 758019389#1"/>
    </person>
    <person id="ped1552" type="ped_pedestrian" depart="303.33">
        <walk edges="-116783935#1 -116783909#1 116783893#0"/>
    </person>
    <person id="ped1553" type="ped_pedestrian" depart="303.53">
        <walk edges="-116831879#1 -116831881#6 -116831888 116831877 640652970#5 640652970#4 640652970#3"/>
    </person>
    <person id="ped1574" type="ped_pedestrian" depart="307.63">
        <walk edges="178725147#1 178737605#2 161091601#2 161091601#1 161091601#0 39764174#0"/>
    </person>
    <person id="ped1586" type="ped_pedestrian" depart="309.98">
        <walk edges="-116783873#2 116783763"/>
    </person>
    <person id="ped1588" type="ped_pedestrian" depart="310.37">
        <walk edges="178719573#31 178719573#30 178737609 178733291#3 178737610#2 178737614#0 178737614#1"/>
    </person>
    <person id="ped1602" type="ped_pedestrian" depart="313.10">
        <walk edges="178723098#1 178719573#42 178719573#0 178721636#0 178721636#1 178721636#3 178721636#4 178721636#5 178719573#13 178719573#16 178721636#16 178721636#17 178721636#18 178801549#0 178801549#1 564255372#0 178801543#1 178801543#2 178801543#3 564255372#2"/>
    </person>
    <person id="ped1620" type="ped_pedestrian" depart="316.62">
        <walk edges="178722057#0 178722057#1 178723091#3 178723091#2 178725152#0"/>
    </person>
    <person id="ped1624" type="ped_pedestrian" depart="317.40">
        <walk edges="-440146337 -440024343#2 -440024343#4 440146338"/>
    </person>
    <person id="ped1658" type="ped_pedestrian" depart="324.05">
        <walk edges="564255361#1 1295952170 178721636#16 178719573#16 178719573#13 178721636#5 178721636#4 178721636#3 178721636#1 178721636#0 178719573#0 1303211752#2 1303211752#1 761403176#0 761403176#1 761403176#2 761403176#3 761403176#4 513764740#7 513764740#6 513764740#5 -49076698#0"/>
    </person>
    <person id="ped1663" type="ped_pedestrian" depart="325.02">
        <walk edges="436681710#12 436681710#11 436681710#10 758019387#1 758019387#2 440429842 440429840#3 440429839 447882291 447882287#2 447882284#1"/>
    </person>
    <person id="ped1666" type="ped_pedestrian" depart="325.61">
        <walk edges="513764740#6 513764740#7 761403176#4 761403176#3 761403176#2 761403176#1 761403176#0 1303211752#1 1303211752#2 178719573#0 178721636#0 178721636#1 178721636#3 178721636#4 178721636#5 178719573#12 178719573#11"/>
    </person>
    <person id="ped1717" type="ped_pedestrian" depart="335.58">
        <walk edges="116783785#2 -116783785#3 -116783785#4 -116783805#1 -116783909#8 -116783909#7 -116783909#6 -116783909#5 -116783909#4 -116783909#3 -116783909#2 -116783909#1 116783935#0"/>
    </person>
    <person id="ped1725" type="ped_pedestrian" depart="337.14">
        <walk edges="-116783816#1 -116783817#0 -1117667492#0 -1117667492#1 -116783869#1"/>
    </person>
    <person id="ped1764" type="ped_pedestrian" depart="344.76">
        <walk edges="178721645#0 178721636#1 178721636#3 178721636#4 178721636#5 178719573#13 178719573#16 178721636#16 178721636#17 178721636#18 178721636#19 178721636#20 -178737620"/>
    </person>
    <person id="ped1768" type="ped_pedestrian" depart="345.55">
        <walk edges="116783893#0 -116783893#1"/>
    </person>
    <person id="ped1789" type="ped_pedestrian" depart="349.65">
        <walk edges="178721645#0 178721636#0 178719573#0 178719573#42"/>
    </person>
    <person id="ped1833" type="ped_pedestrian" depart="358.25">
        <walk edges="-1408949231#0 -488595378#3 488595378#4"/>
    </person>
    <person id="ped1843" type="ped_pedestrian" depart="360.21">
        <walk edges="133465404#2 133465381#2 133465396 1301462161#2 133465408#1 133465408#0 745219316#2 745219316#1 745219316#0 303226971#4 303226971#0 133465382#0 133465386#0 133465388 133465394#2"/>
    </person>
    <person id="ped1846" type="ped_pedestrian" depart="360.79">
        <walk edges="116783774#0 -116783909#5 -116783909#6 -116783918#1"/>
    </person>
    <person id="ped1870" type="ped_pedestrian" depart="365.48">
        <walk edges="436681710#2 440429836#32 440429836#31 440429836#30 440429836#29"/>
    </person>
    <person id="ped1883" type="ped_pedestrian" depart="368.02">
        <walk edges="440429839 440429836#30 440429836#31 440429836#32 440429836#0 440429836#1 440478976#3 440429836#6 440429836#7 440429836#8 440429836#9 440429836#10 440429836#11 440429836#12 440429836#13 440429836#14 757510129 757510125#4"/>
    </person>
    <person id="ped1889" type="ped_pedestrian" depart="369.20">
        <walk edges="440478977#8 440429835#3 440478976#12 440429834#2 440429834#3 440429834#4 758019385#3 758019385#8 758019387#4 440429843#9"/>
    </person>
    <person id="ped1920" type="ped_pedestrian" depart="375.25">
        <walk edges="758019385#4 758019385#5 440429832#2"/>
    </person>
    <person id="ped1977" type="ped_pedestrian" depart="386.39">
        <walk edges="440429836#24 440429832#0 440429832#1 440429832#2 758019385#6 758019385#7 758019385#8 758019385#2 758019388#0 758019388#1 758019389#0 440429835#4 440478977#9 440429835#6 440429835#7 440478977#11 440429835#9 440429836#8 440478977#13"/>
    </person>
    <person id="ped2012" type="ped_pedestrian" depart="393.24">
        <walk edges="178723098#0 178723098#1 178719573#42 178719573#0 178721636#0 178721636#1 178721636#3 178721636#4 178719573#5 178732947#1"/>
    </person>
    <person id="ped2016" type="ped_pedestrian" depart="394.02">
        <walk edges="178721891#0 178721645#0 178721636#1 178721636#3 178721636#4 178721636#5 178719573#13 178719573#16 178721636#16 178721636#17 178721636#18 178801549#0 178801549#1 564255372#0 178801543#0"/>
    </person>
    <person id="ped2025" type="ped_pedestrian" depart="395.78">
        <walk edges="440439920 440439919#0 440439921#0 440429834#3 440429834#2"/>
    </person>
    <person id="ped2042" type="ped_pedestrian" depart="399.10">
        <walk edges="-1211978034#1 -1211970166#10 -1211970166#9 -1211970166#8 -1211970166#7 -1211970166#6 -1211970166#5 -1211970166#4 -1211970166#3 1211978026#0"/>
    </person>
    <person id="ped2053" type="ped_pedestrian" depart="401.25">
        <walk edges="440429843#0 440429842 440429840#1 440429841"/>
    </person>
    <person id="ped2058" type="ped_pedestrian" depart="402.23">
        <walk edges="440439917 440429836#29 440429836#30 440429836#31 440429836#32 440429836#0 440429836#1 758019389#1 758019388#2"/>
    </person>
    <person id="ped2082" type="ped_pedestrian" depart="406.92">
        <walk edges="116831884 640652970#8 -116831885"/>
    </person>
    <person id="ped2085" type="ped_pedestrian" depart="407.50">
        <walk edges="436681710#11 436681710#10 758019387#0 758019385#7 758019385#8 758019385#2 758019385#1 440429836#32 440429836#0 440429836#1"/>
    </person>
    <person id="ped2125" type="ped_pedestrian" depart="415.32">
        <walk edges="133465402 328764027#1 178702245 178801533 178801543#1 564255372#0 178801549#1 178801549#0 178721636#18 178721636#17 178721636#16 178719573#16 178719573#13 178721636#5 178721636#4 178721636#3 178721636#1 178721636#0 178719573#0 1303211752#2 1303211752#1 761403176#0 761403176#1 761403176#2 761403176#3 761403176#4 513764740#7 513764740#6 47152604#3 50417969"/>
    </person>
    <person id="ped2130" type="ped_pedestrian" depart="416.30">
        <walk edges="-449881601 440024351#3"/>
    </person>
    <person id="ped2160" type="ped_pedestrian" depart="422.16">
        <walk edges="1353099733#0 734421220#2 1359525996 320104840#1 405396507 405396504#1 1359525999 320104836#6 320104836#7 320104836#8 1359525993"/>
    </person>
    <person id="ped2170" type="ped_pedestrian" depart="424.12">
        <walk edges="178725158#1 178725158#0 178725152#3 178725152#2 178725152#1 178725157 178719573#40 178719573#41 178719573#42 178719573#0 178721636#0 178721636#1 178721636#3 178721636#4 178721636#5 178719573#13 178719573#16 178721636#16 178721636#17 178721636#18 178801549#0 178801549#1 564255372#0 564255372#1"/>
    </person>
    <person id="ped2173" type="ped_pedestrian" depart="424.70">
        <walk edges="178733291#0 178733291#1 178733291#2 178733291#3 178737610#2 178737614#0 178737614#1 178731160#1 178731160#0 178731161#1 178731161#0 178719573#23 178719573#16 178719573#13 178721636#5 178721636#4 178721636#3 178721636#1 178721636#0 178719573#0 1303211752#2 178722057#0"/>
    </person>
    <person id="ped2207" type="ped_pedestrian" depart="431.35">
        <walk edges="758019385#8 758019385#7 758019387#0 758019387#1 758019386#0 440429843#2"/>
    </person>
    <person id="ped2214" type="ped_pedestrian" depart="432.72">
        <walk edges="440478977#17 440478977#16 440429836#11 440429836#10 440429836#9 440429836#8 440429835#9"/>
    </person>
    <person id="ped2238" type="ped_pedestrian" depart="437.41">
        <walk edges="178721636#17 178721636#16 178719573#23 178731161#0 178731161#1 178731160#3"/>
    </person>
    <person id="ped2259" type="ped_pedestrian" depart="441.51">
        <walk edges="178725150#0 178721636#19 178721636#18 178721636#17 178721636#16 178719573#16 178719573#13 178721636#5 178721636#4 178721636#3 178721636#1 178721636#0 178719573#0 1303211752#2 1303211752#1 761403176#0 761403176#1 761403176#2 761403176#3 761403176#4 513764740#7 513764740#6 513764740#5 478205127#0"/>
    </person>
    <person id="ped2262" type="ped_pedestrian" depart="442.10">
        <walk edges="178732947#1 178732947#0 178732950#2"/>
    </person>
    <person id="ped2337" type="ped_pedestrian" depart="456.75">
        <walk edges="513764740#0 513764740#1 513764740#2 513764740#3 513764740#4 513764740#5 513764740#6 513764740#7 761403176#4 761403176#3 761403176#2 761403176#1 761403176#0 1303211752#1 1303211752#2 178719573#0 178721636#0 178721636#1 178721636#3 178721636#4 178721636#5 178719573#13 178719573#16 178721636#16 178721636#17 178721636#18 178801549#0 178801549#1 178801532#0 178801532#1"/>
    </person>
    <person id="ped2365" type="ped_pedestrian" depart="462.23">
        <walk edges="758019388#1 436681710#1 436681710#2 440429836#32"/>
    </person>
    <person id="ped2369" type="ped_pedestrian" depart="463.01">