<?xml version="1.0" encoding="UTF-8"?>

<!-- generated on 2025-12-13T17:20:23.496816+08:00 by Eclipse SUMO duarouter 1.25.0
<duarouterConfiguration xmlns:xsi="http://www.w3.org/2001/XMLSchema-instance" xsi:noNamespaceSchemaLocation="http://sumo.dlr.de/xsd/duarouterConfiguration.xsd">

    <input>
        <net-file value="yanan_elevated.net.xml"/>
        <route-files value="osm.truck.trips.xml"/>
    </input>

    <output>
        <output-file value="osm.truck.rou.xml"/>
    </output>

    <report>
        <ignore-errors value="true"/>
    </report>

</duarouterConfiguration>
-->

<routes xmlns:xsi="http://www.w3.org/2001/XMLSchema-instance" xsi:noNamespaceSchemaLocation="http://sumo.dlr.de/xsd/routes_file.xsd">
    <vType id="truck_truck" vClass="truck"/>
    <vehicle id="truck0" type="truck_truck" depart="0.00" departLane="best">
        <route edges="1074409256#2 654297629#0 654297629#1 654297629#2 654297629#3 654297629#4 654297629#5 654297629#6 564273553#0 564273553#1 564273553#2 564273553#3 564273553#4 1214520068 12247569 1211151638 1211151635#0 1211151635#1 450616334#0 450616334#1 488788633#0 488788633#1 488788633#2 1067928307#0 1067928307#2 1067928307#3 488788630#0 488788630#1 488788630#2 428730818#0 428730818#1 428730818#2 428730818#3 1421564739 428730807 1226645407"/>
    </vehicle>
    <vehicle id="truck1" type="truck_truck" depart="0.97" departLane="best">
        <route edges="-1125986375#1 169562956 10748036 83428923#0 83428923#1 1125986377#0 1125986377#1 1125986377#2 -10628429 479863106#0 479863106#1 479863106#2 511187818 1214520076"/>
    </vehicle>
    <vehicle id="truck2" type="truck_truck" depart="1.95" departLane="best">
        <route edges="-1068144846#1 1068144846#1 1068144846#2 985133427 515123439 509524227#0 509524227#1 967993112#0 967993112#1 511405572 1214520070 1068434236 509646055 509646144 -1214520079 -968332509 -1292541108 -509646052 1068916339 1254816455 10628444#0 10628444#1 10628444#2 1335304377 900279886 -1335304386#1 -1335304386#0"/>
    </vehicle>
    <vehicle id="truck3" type="truck_truck" depart="2.92" departLane="best" departSpeed="max">
        <route edges="-687878722#2 -687878722#1 -687878722#0 1067928306#2 515124966 985133427 515123439 509524227#0 509524227#1 967993112#0 967993112#1 511405572 1214520070 1068434236 509646055 509646144 -1214520079 826496637"/>
    </vehicle>
    <vehicle id="truck4" type="truck_truck" depart="3.89" departLane="best" departSpeed="max">
        <route edges="178583155 666886086#2 666886086#3 1290439818 1235501861#0 1235501861#1 1235501861#2 1064476624 178699051#0 178699051#1 985133430 666886085#0 666886085#1 1100626087 39838530 511409187 147711065#0 147711065#1 147711065#2 1068916338 488788637#0 488788637#1 -488788637#1"/>
    </vehicle>
    <vehicle id="truck5" type="truck_truck" depart="4.87" departLane="best" departSpeed="max">
        <route edges="13866211 15420537#0 15420537#1 15420537#2 47087993#2 47087993#3 47087993#5 47087993#6 -1068144845#4 -1068144845#3 -1068144845#2 -1068144845#1 -1068144845#0 -1332638368#2 -1332638368#1 -1332638368#0 -14924729#3 -14924729#2 -14924729#1 -14924729#0 -1332638391#2 -1332638391#1 -1332638391#0 -1068434202 -1214520079 -968332509 -1292541108 -509646052 1068916339 1254816455 10628444#0 10628444#1 10628444#2 1335304377 900279886 1335304385 1324405511 1335304375 1335304374 475044040#0 475044040#1 475044040#2 475044040#3 475044040#4 1272337501 1064476622#0 1064476622#1 968332513#0 968332513#1 1260481150 900287035 985675139 10749498"/>
    </vehicle>
    <vehicle id="truck6" type="truck_truck" depart="5.84" departLane="best">
        <route edges="666886082#0 666886082#1 1068434257 1068434203 40297885#1 521701859 511187808#4-AddedOnRampEdge 511187808#4 -521701857 -521705694#1 1068434200#0 1068434200#1 521704042#0 1125986387 1214520075 509524270 40322293 1214520070 1068434236 509646055 509646144 -1214520079 -968332509 -1292541108 -509646052 -1125986377#2 -1125986377#1 -1125986377#0 -83428923#1 -83428923#0 -10748036"/>
    </vehicle>
    <vehicle id="truck7" type="truck_truck" depart="6.81" departLane="best">
        <route edges="1125986378#0 1260485929#1 1260485929#2 1260485929#3 -509646052 1068916339 1254816455 10628444#0 10628444#1 10628444#2 1335304377 900279886 1335304385 1324405511 1335304375 1335304374 -40035325#2 -40035325#1 -40035325#0 -39920593#2 -39920593#1 -39920593#0 -1323097576 -1323097577 -1273405490 -1236283454 -1273251151 -1273251152 -1254633077#1 40109290#0"/>
    </vehicle>
    <vehicle id="truck8" type="truck_truck" depart="7.78" departLane="best">
        <route edges="240666072#2 -1332638368#2 -1332638368#1 -1332638368#0 47225638#0 47225638#1 47225638#3 509524227#0 515123438 515124965#1 509524226 513082638 513082641#2-AddedOnRampEdge 513082641#2 11635146#0 11635146#0-AddedOffRampEdge 11635146#1 178702239#0-AddedOnRampEdge 178702239#0"/>
    </vehicle>
    <vehicle id="truck9" type="truck_truck" depart="8.76" departLane="best">
        <route edges="413789557 -450616334#1 -450616334#0 -1211151635#1 -1211151635#0 -1211151638 1211151639 521704036 1068434168 1068434199 1068434200#0 1068434200#1 521704042#0 1125986387 1214520075 509524270 40322293 1214520070 1068434236 509646055 509646144 -1214520079 -968332509 -1292541108 -509646052 1068916339 1254816455 10628444#0 10628444#1 10628444#2 1335304377 900279886 1335304385 1324405511 1335304375 1335304374 -40035325#2 -40035325#1 -40035325#0 -39920593#2 -39920593#1 -39920593#0 -1323097576 -1323097577 -1273405490 -1236283454 -1273251151 -1273251152 -1254633077#1 40109290#0 40109290#1 -50323229#15 -50323229#14 -50323229#13 -50323229#11 -50323229#10 -50323229#9 -50323229#7 -50323229#6 -50323229#5"/>
    </vehicle>
    <vehicle id="truck10" type="truck_truck" depart="9.73" departLane="best">
        <route edges="490474063#2 490474063#3 490474063#4 490474063#5 490474063#6 490474063#7 490474063#8 15419875#0 15419875#1 39921192#0 39921192#1 488788626#0 488788626#1 488788626#2 488788626#3 178699054 1064476624 178699051#0 178699051#1 985133430 511404873#0 511404873#1 -1125986386 -10628430 24576913#0 24576913#1 24576913#2 1074771160 1074409256#0 1074409256#2 654297629#0 654297629#1 654297629#2 654297629#3 654297629#4 654297629#5 654297629#6 564273552"/>
    </vehicle>
    <vehicle id="truck11" type="truck_truck" depart="10.70" departLane="best" departSpeed="max">
        <route edges="-1117667177 1323097580#0 1323097580#1 474143552#0 24621218#4 -40297715#3 -40297715#2 -40297715#1 -40297715#0 -1335304385 -900279886 -1335304377 -10628444#2 -10628444#1 -10628444#0 -1254816455 -1068916339 509646052 1292541108 968332509 1214520079 1068434202"/>
    </vehicle>
    <vehicle id="truck12" type="truck_truck" depart="11.68" departLane="best">
        <route edges="1100626103#2 1100626103#3 967985513#0 967985513#1 967985513#2 178441748#0 178441748#1 178441748#2 1323097580#0 1323097580#1 474143552#0 24621218#4 -40297715#3 -40297715#2 -40297715#1 -40297715#0 -1335304385 -900279886 -1335304377 -10628444#2 -10628444#1 -10628444#0 -1254816455 -1068916339 509646052 -1260485929#3 -1260485929#2 -1260485929#1 -1125986378#0 1125986378#0"/>
    </vehicle>
    <vehicle id="truck13" type="truck_truck" depart="12.65" departLane="best">
        <route edges="15419906#1 15419906#2 474143552#0 474143552#1 474143552#2 474143552#3 474143552#4 474143552#5 474143552#6 488788626#0 488788626#1 488788626#2 488788626#3 178699054 1064476624 178699051#0 178699051#1 985133430 511404873#0 511404873#1 -1125986386 -10628430 24576913#0 24576913#1 24576913#2 1074771160 1074409256#0 1074409256#2 654297629#0 654297629#1 654297629#2 654297629#3 -654297629#3 -654297629#2 -654297629#1 -654297629#0"/>
    </vehicle>
    <vehicle id="truck14" type="truck_truck" depart="13.62" departLane="best">
        <route edges="39838691#2 -39838657#3 -39838657#2 -39838657#1 -39838657#0 -39366819#0 -521701857 -521705694#1 1068434200#0 1068434200#1 521704042#0 1125986387 1214520075 511404874#0 511404874#1 515123442#0 515123442#1 515123442#2"/>
    </vehicle>
    <vehicle id="truck15" type="truck_truck" depart="14.60" departLane="best">
        <route edges="521705694#0 1068434200#0 1068434200#1 521704042#0 1125986387 1214520075 509524270 40322293 1214520070 509646061 509646062 509646057#0 509646057#1 509646057#2 1332638391#0 1332638391#1 761486028#0 509647505"/>
    </vehicle>
    <vehicle id="truck16" type="truck_truck" depart="15.57" departLane="best" departSpeed="max">
        <route edges="-488786523 1068144846#1 1068144846#2 985133427 1337646270 1298335702 1337646276 1421367508 12090453#0 12090453#1 1421367925 488788636#0 488788636#1 413789557 488788633#0 488788633#1 488788633#2 1067928307#0 1067928307#2 1067928307#3 -437445542 437445542"/>
    </vehicle>
    <vehicle id="truck17" type="truck_truck" depart="16.54" departLane="best">
        <route edges="428730813#1 428730813#2 428730813#3 -428730813#3 -428730813#2 -428730813#1 -428730813#0 428730818#0 428730818#1 428730818#2 428730818#3 1421564739 428730807 1226645407 1226645410 1074771170 515130028#0 515130028#1-AddedOnRampEdge 515130028#1 985133427 515123439 509524227#0 509524227#1 967993112#0 967993112#1 511405572 1214520070 1068434236 509646055 509646144 -1214520079 -968332509 -1292541108 -509646052 1068916339 1254816455 10628444#0 10628444#1 10628444#2 1335304377 900279886 1335304385 1324405511 1335304375 1335304374 -40035325#2 -40035325#1 -40035325#0 -39920593#2 -39920593#1 -39920593#0 -1323097576 -1323097577 -1273405490 -1236283454 -1273251151 -1273251152 -1254633077#1 40109290#0 40109290#1 -50323229#15 -50323229#14 -50323229#13 -50323229#11 -50323229#10 -50323229#9 -50323229#7 -50323229#6"/>
    </vehicle>
    <vehicle id="truck18" type="truck_truck" depart="17.52" departLane="best">
        <route edges="143546557 1222703384#0 1222703384#1 39921531 1068916335 -1335304377 -10628444#2 -10628444#1 -10628444#0 -1254816455 -1068916339 -1125986377#2 -1125986377#1"/>
    </vehicle>
    <vehicle id="truck19" type="truck_truck" depart="18.49" departLane="best">
        <route edges="47087993#6 -1068144845#4 -1068144845#3 -1068144845#2 -1068144845#1 -1068144845#0 -1332638368#2 -1332638368#1 -1332638368#0 47225638#0 47225638#1 47225638#3 47225638#4 1298335702 1337646276 1421367508 12090453#0 12090453#1 1421367925 488788636#0 488788636#1 413789557 488788633#0 488788633#1 488788633#2 1067928307#0 1067928307#2 1067928307#3 488788630#0 488788630#1 488788630#2 428730813#0 428730813#1 428730813#2 428730813#3 39224566"/>
    </vehicle>
    <vehicle id="truck20" type="truck_truck" depart="19.46" departLane="best" departSpeed="max">
        <route edges="39086240 39086240-AddedOffRampEdge 1231065644 975216741 975216739 975216740 856175963 -1292541108 -509646052 1068916339 -1068916338 -147711065#2 -147711065#1 -147711065#0 -511409187 -39838530 -513272949 -1125986386 -10628430 -449565665#3"/>
    </vehicle>
    <vehicle id="truck21" type="truck_truck" depart="20.43" departLane="best" departSpeed="max">
        <route edges="900399276 12262310#0 12262310#0-AddedOffRampEdge 15525299 439836128#0 439836128#0-AddedOffRampEdge 39839131 160078084-AddedOnRampEdge 160078084 178702252 178702261 178702239#0-AddedOnRampEdge 178702239#0"/>
    </vehicle>
    <vehicle id="truck22" type="truck_truck" depart="21.41" departLane="best">
        <route edges="1234244925#1 1234244925#2 1214520073#0 1214520073#1 513272951#0 513272951#1 1255099064 1204070282 515040937 40297647#0 40297647#1 40297647#2 1235501862 1100626103#0 1100626103#1 1100626103#2 1100626103#3 967985513#0 967985513#1"/>
    </vehicle>
    <vehicle id="truck23" type="truck_truck" depart="22.38" departLane="best" departSpeed="max">
        <route edges="15420525 424580475 1068144849#1 1068144849#2 1068144844 1068144848#0 1068144848#1 1068144847 47087366#0 47087366#1 47087366#2 39838984#0 39838984#1 -47224972#1 -47224972#0 -509646056 -900279869 -1214520076 -511187818 -479863106#2 -479863106#1 -479863106#0 -488788629 488788629"/>
    </vehicle>
    <vehicle id="truck24" type="truck_truck" depart="23.35" departLane="best" departSpeed="max">
        <route edges="-1322916760#2 -1322916760#1 -1068144845#4 -1068144845#3 -1068144845#2 -1068144845#1 -1068144845#0 -1332638368#2 -1332638368#1 -1332638368#0 -14924729#3 -14924729#2 -14924729#1 -14924729#0 -1332638391#2 -1332638391#1 -1332638391#0 -1068434202 -1214520079 -968332509 -1292541108 -509646052 1068916339 488788637#0 488788637#1 1125986385#0 1125986385#1 1125986373#0 1125986373#1 1125986373#2 1125986373#3 654297637#0 654297637#1 654297637#2 -654297637#2"/>
    </vehicle>
    <vehicle id="truck25" type="truck_truck" depart="24.33" departLane="best">
        <route edges="449565665#2 449565665#3 10628430 1125986386 513272949 39838530 511409187 147711065#0 147711065#1 147711065#2 1068916338 -1068916339 509646052 1292541108 968332509 1214520079 1068434202 1332638391#0 -1332638391#0 1231065654"/>
    </vehicle>
    <vehicle id="truck26" type="truck_truck" depart="25.30" departLane="best">
        <route edges="515136609 8758061 428730807 1226645407 1226645410 1074771170 515130028#0 515130028#1-AddedOnRampEdge 515130028#1 985133427 515123439 509524227#0 509524227#1 967993112#0 967993112#1 511405572 1214520071 1234244925#0 1234244925#1 1234244925#2 1214520073#0 1214520073#1 -511409187 -39838530 -513272949 -1125986386 -10628430 24576913#0 24576913#1 24576913#2 1074771160 -1074771160"/>
    </vehicle>
    <vehicle id="truck27" type="truck_truck" depart="26.27" departLane="best" departSpeed="max">
        <route edges="-687878722#2 -687878722#1 -687878722#0 1067928306#2 515124966 985133427 1337646270 515124965#1 515124965#2 967985512 478286980#0 478286980#1 509524271 511409188#0 511409188#1 1234244927#0 1234244927#1 515040940#0 515040940#1 1204070281 515040937 47157282#0 47157282#1 -474143552#6 -474143552#5 -474143552#4 -474143552#3 -474143552#2 39920505#4 39920505#5 39920505#6"/>
    </vehicle>
    <vehicle id="truck28" type="truck_truck" depart="27.25" departLane="best">
        <route edges="47087993#3 47087993#5 47087993#6 -1068144845#4 -1068144845#3 -1068144845#2 -1068144845#1 -1068144845#0 -1332638368#2 -1332638368#1 -1332638368#0 -14924729#3 -14924729#2 -14924729#1 -14924729#0 -1332638391#2 -1332638391#1 -1332638391#0 -1068434202 -1214520079 -968332509 -1292541108 -509646052 1068916339 1254816455 10628444#0 10628444#1 10628444#2 1335304377 900279886 1335304385 1324405511 1335304375 1335304374 475044040#0 475044040#1 475044040#2 475044040#3 475044040#4 1272337501 1064476622#0 1064476622#1 1254633078#1 1067953239#0 1067953239#1"/>
    </vehicle>
    <vehicle id="truck29" type="truck_truck" depart="28.22" departLane="best">
        <route edges="-1068144845#4 -1068144845#3 -1068144845#2 -1068144845#1 -1068144845#0 -1332638368#2 -1332638368#1 -1332638368#0 -14924729#3 -14924729#2 -14924729#1 -14924729#0 -1332638391#2 -1332638391#1 -1332638391#0 -1068434202 -1214520079 826496637 1222181937 1068434204 511187823 1068434258 1214520072 511187811 1125986369 1068434257 1068434203 -511187807"/>
    </vehicle>
    <vehicle id="truck30" type="truck_truck" depart="29.19" departLane="best">
        <route edges="1068916338 1254816455 10628444#0 10628444#1 10628444#2 1335304377 900279886 1335304385 39921192#0 39921192#1 488788626#0 488788626#1 488788626#2 488788626#3 178699054 1074409255#0 1074409255#1 1074409255#2 9832326#0 9832326#1"/>
    </vehicle>
    <vehicle id="truck31" type="truck_truck" depart="30.17" departLane="best">
        <route edges="666886082#1 1068434257 1068434203 40297885#1 521701859 511187808#4-AddedOnRampEdge 511187808#4 -521701857 -521705694#1 1068434200#0 1068434200#1 521704042#0 1125986387 1214520075 509524270 40322293 1214520070 1068434236 509646055 509646144 -1214520079 -968332509 -1292541108 -509646052 1068916339 1254816455 10628444#0 10628444#1 10628444#2 1335304377 900279886 1335304385 1324405511 1335304375 1335304374 -40035325#2 -40035325#1 -40035325#0 39920593#3 40035606#0 401226926#0"/>
    </vehicle>
    <vehicle id="truck32" type="truck_truck" depart="31.14" departLane="best">
        <route edges="-40297715#3 -40297715#2 -40297715#1 -40297715#0 -1335304385 -900279886 -1335304377 -10628444#2 -10628444#1 -10628444#0 -1254816455 -1068916339 509646052 1292541108 968332509 826496637 1222181937 1068434204 511187823 1068434258 1214520072 511187811 1125986369 1068434257 1068434203 40297885#1 40297885#2 654297628"/>
    </vehicle>
    <vehicle id="truck33" type="truck_truck" depart="32.11" departLane="best">
        <route edges="451728952#1 451728952#3 451728952#4 451728952#5 47087366#0 47087366#1 47087366#2 39838984#0 39838984#1 -47224972#1 -47224972#0 -509646056 -900279869 -1214520076 -511187818 -479863106#2 -479863106#1 -479863106#0 -488788629 1068916338"/>
    </vehicle>
    <vehicle id="truck34" type="truck_truck" depart="33.09" departLane="best" departSpeed="max">
        <route edges="116831467 401226926#1 39920593#5 39920593#6 -40297715#3 -40297715#2 -40297715#1 -40297715#0 -1335304385 -900279886 -1335304377 -10628444#2 -10628444#1 -10628444#0 -1254816455 -1068916339 509646052 1292541108 968332509 826496637 1222181937 1068434204 511187823 1068434258 1214520072 511187811 1125986369 1068434257 1068434203 40297885#1 40297885#2 654297628 1068434256#0 1068434256#1 521701858 521701858-AddedOffRampEdge 1211151640 12247569 1211151638 1211151635#0 1211151635#1 450616334#0 450616334#1 488788633#0 488788633#1 488788633#2 1067928307#0 1067928307#2 1067928307#3 -437445542 -437445540 -83563455 -654530820#1 -654530820#0"/>
    </vehicle>
    <vehicle id="truck35" type="truck_truck" depart="34.06" departLane="best">
        <route edges="-10250021#0 1125986377#0 1125986377#1 1125986377#2 1068916339 -1068916338 -147711065#2 -147711065#1 -147711065#0 -511409187 -39838530 -513272949 -1125986386 -10628430 24576913#0 24576913#1 24576913#2 -24576913#2 -24576913#1 -24576913#0"/>
    </vehicle>
    <vehicle id="truck36" type="truck_truck" depart="35.03" departLane="best">
        <route edges="-1254816455 -1068916339 509646052 1292541108 968332509 826496637 1222181937 1068434204 511187823 1068434258 1214520072 511187811 511404874#0 511404874#1 515123442#0 515123442#1 515123442#2 515123442#3 515123442#4 666886081 515126385#0 515126385#1 515124966 -1068144846#2 -1068144846#1"/>
    </vehicle>
    <vehicle id="truck37" type="truck_truck" depart="36.00" departLane="best">
        <route edges="-1125986377#0 10250021#0 10250021#2 10250021#3 10250021#4 1125986379#0 1125986379#1 654297631 654297632#0 654297632#2 499566577#0 499566577#1 1335304371 475044040#1 475044040#2 475044040#3 475044040#4 1272337501 1064476622#0 1064476622#1 1254633078#1 1067953239#0 1067953239#1 -40138239#4 -40138239#3 -40138239#2"/>
    </vehicle>
    <vehicle id="truck38" type="truck_truck" depart="36.98" departLane="best">
        <route edges="1335304373#0 1335304373#1 1335304373#2 -1335304373#2 -1335304373#1 -1335304373#0 490474063#8 15419875#0 15419875#1 39921192#0 39921192#1 -474143552#6 -474143552#5 -474143552#4 -474143552#3 -474143552#2 -474143552#1 -474143552#0 -1323097580#1 1323097580#1"/>
    </vehicle>
    <vehicle id="truck39" type="truck_truck" depart="37.95" departLane="best">
        <route edges="449565665#3 10628430 1125986386 513272949 39838530 515040940#0 515040940#1 1204070281 515040937 47157282#0 47157282#1 1237953497 1324405511 1335304375 1335304374 475044040#0 475044040#1 475044040#2 475044040#3 475044040#4 1323097575#1 1323097575#2 1323097575#3 490474063#0 490474063#1"/>
    </vehicle>
    <vehicle id="truck40" type="truck_truck" depart="38.92" departLane="best">
        <route edges="13909444#7 -232920701 1068144844 1068144848#0 1068144848#1 1068144847 47087366#0 47087366#1 47225638#1 47225638#3 509524227#0 509524227#1 967993112#0 967993112#1 511405572 1214520071 1234244925#0 1234244925#1 1234244925#2 1214520073#0 1214520073#1 -511409187 -39838530 666886084#0 666886084#1 178702258#0 178702258#1"/>
    </vehicle>
    <vehicle id="truck41" type="truck_truck" depart="39.90" departLane="best">
        <route edges="488788633#2 -488788633#2 -488788633#1 -488788633#0 -450616334#1 -450616334#0 -1211151635#1 -1211151635#0 -1211151638 -12247569 -1214520068 -564273553#4 -564273553#3 -564273553#2 -564273553#1 -564273553#0 -654297629#6 -654297629#5 -654297629#4 -654297629#3 -654297629#2 -654297629#1 -654297629#0 654297629#0 654297629#1"/>
    </vehicle>
    <vehicle id="truck42" type="truck_truck" depart="40.87" departLane="best">
        <route edges="1068434205 1068434204 511187823 1068434258 1214520072 511187811 509524270 40322293 1214520070 1068434236 509646055 509646144 1068434235 509647506 1231065653 975216743 975216744 975216742 513087668"/>
    </vehicle>
    <vehicle id="truck43" type="truck_truck" depart="41.84" departLane="best">
        <route edges="511187808#2 511187808#3 511187808#4-AddedOnRampEdge 511187808#4 -521701857 -521705694#1 1068434200#0 1068434200#1 521704042#0 1125986387 1214520075 509524270 40322293 1214520070 1068434236 509646055 509646144 -1214520079 -968332509 -1292541108 -509646052 1068916339 1254816455 10628444#0 10628444#1 10628444#2 1335304377 900279886 1335304385 1324405511 1335304375 1335304374 -40035325#2 -40035325#1 -40035325#0 -39920593#2 -39920593#1 -39920593#0 -1323097576 -1323097577 -1273405490 -1236283454 -1273251151 -1273251152 -1254633077#1 40109290#0 40109290#1 -50323229#15 -50323229#14 -50323229#13 -50323229#11"/>
    </vehicle>
    <vehicle id="truck44" type="truck_truck" depart="42.82" departLane="best">
        <route edges="-12247568#1 -488788633#1 -488788633#0 -450616334#1 -450616334#0 -1211151635#1 -1211151635#0 -1211151638 -12247569 -1214520068 -564273553#4 -564273553#3 -564273553#2 -564273553#1 -564273553#0 -654297629#6 -654297629#5 -654297629#4 -654297629#3 -654297629#2 -654297629#1 -654297629#0 -1074409256#2 -1074409256#0 -1074771160 -24576913#2 -24576913#1"/>
    </vehicle>
    <vehicle id="truck45" type="truck_truck" depart="43.79" departLane="best">
        <route edges="-1332638368#0 -14924729#3 -14924729#2 -14924729#1 -14924729#0 -1332638391#2 -1332638391#1 -1332638391#0 -1068434202 -1214520079 -968332509 -1292541108 -509646052 1068916339 1254816455 10628444#0 10628444#1 10628444#2 1335304377 900279886 1335304385 40297715#0 40297715#1 40297715#2 40297715#3 -39920593#6 -39920593#5 -401226926#1 -116831467"/>
    </vehicle>
    <vehicle id="truck46" type="truck_truck" depart="44.76" departLane="best" departSpeed="max">
        <route edges="15420525 424580475 1068144849#1 1068144849#2 1068144844 47087993#0 47087993#1 47087993#2 47087993#3 47087993#5 47087993#6 -1068144845#4 -1068144845#3 -1068144845#2 -1068144845#1 -1068144845#0 -1332638368#2 -1332638368#1 -1332638368#0 -14924729#3 -14924729#2 -14924729#1 -14924729#0 -1332638391#2 -1332638391#1 -1332638391#0 -1068434202 -1214520079 -968332509 -1292541108 -509646052 1068916339 1254816455 10628444#0 10628444#1 10628444#2 1335304377 900279886 1335304385 1324405511 1335304375 1335304374 -40035325#2 -40035325#1 -40035325#0 -39920593#2 -39920593#1 -39920593#0 -1323097576 -1323097577 -1273405490 -1236283454 -1273251151 -1273251152 -1254633077#1 40109290#0 40109290#1 -50323229#15 -50323229#14 -50323229#13 -50323229#11 -50323229#10 -50323229#9 -50323229#7 -50323229#6"/>
    </vehicle>
    <vehicle id="truck47" type="truck_truck" depart="45.74" departLane="best">
        <route edges="513272951#1 1297720376#0 1297720376#1 1297720367 1255099069 1290439817#0 1290439817#1 238219468 -10628444#2 -10628444#1 -10628444#0 -1254816455 -1068916339 -1125986377#2 -1125986377#1 -1125986377#0 -83428923#1 -83428923#0 -1237953493 -1125986375#1 169562956"/>
    </vehicle>
    <vehicle id="truck48" type="truck_truck" depart="46.71" departLane="best" departSpeed="max">
        <route edges="15420532 424580475 1068144849#1 1068144849#2 1068144844 1068144848#0 1068144848#1 1068144847 47087366#0 47087366#1 47087366#2"/>
    </vehicle>
    <vehicle id="truck49" type="truck_truck" depart="47.68" departLane="best" departSpeed="max">
        <route edges="279209078 564273553#0 564273553#1 564273553#2 564273553#3 564273553#4 1214520068 12247569 1211151639 521704036 1068434168 1068434199 1068434200#0 1068434200#1 521704042#0 1125986387 1214520075 509524270 40322293 1214520070 509646061 509646062 509646057#0 509646057#1 509646057#2 1332638391#0 1332638391#1 1332638391#2 14924729#0 14924729#1 9704194#0 9704194#1 9704194#2 9704194#3 9704194#4"/>
    </vehicle>
    <vehicle id="truck50" type="truck_truck" depart="48.65" departLane="best">
        <route edges="178441748#0 178441748#1 178441748#2 1323097580#0 1323097580#1 474143552#0 474143552#1 474143552#2 474143552#3 474143552#4 474143552#5 474143552#6 488788626#0 488788626#1 488788626#2 488788626#3 178699054 465144361 1235754993#0 1235754993#1 421846558#0 421846558#1 71269779"/>
    </vehicle>
    <vehicle id="truck51" type="truck_truck" depart="49.63" departLane="best">
        <route edges="1064476620#2 1068074792 238219449 654297635#0 654297635#1 654297633 238219441#0 238219441#1 238219441#2 -1125986385#1 -1125986385#0 -488788637#1 -488788637#0 -1068916339 509646052 1292541108 968332509 1214520079 1068434202 1332638391#0 -422842976 509646063#1"/>
    </vehicle>
    <vehicle id="truck52" type="truck_truck" depart="50.60" departLane="best">
        <route edges="1297720376#1 1297720367 1255099069 1290439817#0 1290439817#1 1204070283#0 1204070283#1 1125986406#0 1125986406#1 654297630 -147711065#2 -147711065#1 -147711065#0 -511409187 -39838530 -513272949 -1125986386 -10628430 24576913#0 24576913#1 24576913#2 1074771160 1074409256#0 1074409256#2 654297629#0 654297629#1 654297629#2 654297629#3 -39838691#10 -39838691#9 -39838691#8 -39838691#7 -39838691#6 -39838691#5"/>
    </vehicle>
    <vehicle id="truck53" type="truck_truck" depart="51.57" departLane="best">
        <route edges="761486028#0 -761486028#0 1332638391#2 14924729#0 14924729#1 14924729#2 14924729#3 1332638368#0 1332638368#1 1332638368#2 -240666072#2 -240666072#1 -240666072#0"/>
    </vehicle>
    <vehicle id="truck54" type="truck_truck" depart="52.55" departLane="best">
        <route edges="1260481150 900287035 985675139 47088302#0 47088302#1 1064398309#0 1064398309#1 1323097575#0 1323097575#1 1323097575#2 1323097575#3 490474063#0 490474063#1 490474063#2 490474063#3 490474063#4 490474063#5 490474063#6 490474063#7 490474063#8 15419875#0 15419875#1 39921192#0 39921192#1 -474143552#6 -474143552#5 -474143552#4 -474143552#3 -474143552#2 -474143552#1 474143552#1"/>
    </vehicle>
    <vehicle id="truck55" type="truck_truck" depart="53.52" departLane="best">
        <route edges="479863106#1 47224973 1214520077 511187812 1233759524 1214520073#0 1214520073#1 513272951#0 513272951#1 1255099064 1204070282 515040937 178699054 465144361 178699049 178699058 513082627 1290456019 39839107 439836130#0 439836130#0-AddedOffRampEdge 39839275 335802664 439836132 1231065652-AddedOnRampEdge 1231065652"/>
    </vehicle>
    <vehicle id="truck56" type="truck_truck" depart="54.49" departLane="best">
        <route edges="178583148#0 178583167#1 24621218#0 24621218#1 24621218#2 24621218#3 474143552#1 474143552#2 474143552#3 474143552#4 474143552#5 474143552#6 488788626#0 488788626#1 488788626#2 488788626#3 178699054 1064476624 178699051#0 178699051#1 985133430 666886085#0 666886085#1 1100626087 666886084#0 666886084#1 178702258#0 178702258#1 178702258#2 511404874#0 511404874#1 515123442#0 515123442#1 515123442#2 515123442#3 515123442#4 666886081 515126385#0 515126385#1 515126385#2 515126385#3 515126385#4 515126384 1074771170 47087992#0 47087992#1"/>
    </vehicle>
    <vehicle id="truck57" type="truck_truck" depart="55.47" departLane="best">
        <route edges="-1254816452 1254816452 10748045#0 10748045#1 10748045#2 1323097575#0 1323097575#1 1323097575#2 1323097575#3 490474063#0 490474063#1 490474063#2 490474063#3 490474063#4 490474063#5 490474063#6 490474063#7 490474063#8 15419875#0 15419875#1 39921192#0 39921192#1 -474143552#6 -474143552#5 -474143552#4 474143552#4"/>
    </vehicle>
    <vehicle id="truck58" type="truck_truck" depart="56.44" departLane="best">
        <route edges="450616334#0 -450616334#0 -1211151635#1 -1211151635#0 -1211151638 -12247569 -1214520068 -564273553#4 -564273553#3 -564273553#2 -564273553#1 -564273553#0 -654297629#6 -654297629#5 -654297629#4 -654297629#3 -654297629#2 -654297629#1 -654297629#0 -1074409256#2 -1074409256#0 -1074771160 -24576913#2 -24576913#1 -24576913#0 10628430 1125986386 513272949 39838530 515040940#0 515040940#1 1204070281 515040937 40297647#0 40297647#1 40297647#2 1235501862 1100626103#0 1100626103#1 1100626103#2 1100626103#3 967985513#0 967985513#1 967985513#2 178441748#0 178441748#1 178441748#2 1323097580#0"/>
    </vehicle>
    <vehicle id="truck59" type="truck_truck" depart="57.41" departLane="best">
        <route edges="47087993#0 47087993#1 47087993#2 47087993#3 47087993#5 47087993#6 -1068144845#4 -1068144845#3 -1068144845#2 -1068144845#1 -1068144845#0 -1332638368#2 -1332638368#1 -1332638368#0 -14924729#3 -14924729#2 -14924729#1 -14924729#0 -1332638391#2 -1332638391#1 -1332638391#0 -1068434202 -1214520079 -968332509 -1292541108 -509646052 1068916339 1254816455 10628444#0 10628444#1 10628444#2 1335304377 900279886 1335304385 1324405511 1335304375 1335304374 475044040#0 475044040#1 475044040#2 475044040#3 475044040#4 -33683458#2 -33683458#1 -33683458#0 33683346#0 33683346#1 -40036009#3 -40036009#2 -40036009#1 -40036009#0"/>
    </vehicle>
    <vehicle id="truck60" type="truck_truck" depart="58.39" departLane="best">
        <route edges="-1068144846#0 47087366#0 47087366#1 47087366#2 39838984#0 39838984#1 -47224972#1 -47224972#0 -509646056 509646055 509646144 -1214520079 -968332509 -1292541108 -509646052 1068916339 1254816455 10628444#0 10628444#1 10628444#2 1335304377 900279886 1335304385 1324405511 1335304375 1335304374 475044040#0 -1335304371"/>
    </vehicle>
    <vehicle id="truck61" type="truck_truck" depart="59.36" departLane="best">