<?xml version="1.0" encoding="UTF-8"?>

<!-- generated on 2025-12-13T17:21:01.236226+08:00 by Eclipse SUMO duarouter 1.25.0
<duarouterConfiguration xmlns:xsi="http://www.w3.org/2001/XMLSchema-instance" xsi:noNamespaceSchemaLocation="http://sumo.dlr.de/xsd/duarouterConfiguration.xsd">

    <input>
        <net-file value="yanan_elevated.net.xml"/>
        <route-files value="osm.motorcycle.trips.xml"/>
    </input>

    <output>
        <output-file value="osm.motorcycle.rou.xml"/>
    </output>

    <report>
        <ignore-errors value="true"/>
    </report>

</duarouterConfiguration>
-->

<routes xmlns:xsi="http://www.w3.org/2001/XMLSchema-instance" xsi:noNamespaceSchemaLocation="http://sumo.dlr.de/xsd/routes_file.xsd">
    <vType id="motorcycle_motorcycle" vClass="motorcycle"/>
    <vehicle id="motorcycle0" type="motorcycle_motorcycle" depart="0.00" departLane="best">
        <route edges="12090453#1 1421367925 405382146#0 405382146#1 521705694#0 1068434200#0 1068434200#1 521704042#0 1125986387 1214520075 509524270 40322293 1214520070 1068434236 509646055 509646144 1068434235 1214520078 -1237953494 15420801#0"/>
    </vehicle>
    <vehicle id="motorcycle1" type="motorcycle_motorcycle" depart="0.65" departLane="best">
        <route edges="-24576913#2 -24576913#1 -24576913#0 10628430 1125986386 513272949 39838530 511409187 513272951#0 513272951#1 1297720376#0 1297720376#1 1297720367 1255099069 1290439817#0 1290439817#1 238219468 -10628444#2 -10628444#1"/>
    </vehicle>
    <vehicle id="motorcycle2" type="motorcycle_motorcycle" depart="1.30" departLane="best">
        <route edges="-40035606#2 -40035606#1 401226926#0 401226926#1 39920593#5 39920593#6 -40297715#3 -40297715#2 -40297715#1 -40297715#0 -1335304385 -900279886 -1335304377 1335304377"/>
    </vehicle>
    <vehicle id="motorcycle3" type="motorcycle_motorcycle" depart="1.95" departLane="best">
        <route edges="1125986374 -1125986374 1237953493 83428923#0 83428923#1 1125986377#0 1125986377#1 1125986377#2 1068916339 1254816455 10628444#0 -39921672 1204070283#1"/>
    </vehicle>
    <vehicle id="motorcycle4" type="motorcycle_motorcycle" depart="2.59" departLane="best">
        <route edges="-1260485929#0 10748036 83428923#0 83428923#1 1125986377#0 1125986377#1 1125986377#2 1068916339 1254816455 10628444#0 10628444#1 10628444#2 1335304377 900279886 1335304385 1324405511 1335304375 1335304374 475044040#0 -1335304371"/>
    </vehicle>
    <vehicle id="motorcycle5" type="motorcycle_motorcycle" depart="3.24" departLane="best">
        <route edges="666886084#0 666886084#1 178702258#0 178702258#1 178702258#2 509524270 40322293 1214520070 509646061 509646062 509646057#0 509646057#1 509646057#2 1332638391#0 1332638391#1 1332638391#2 14924729#0 14924729#1 14924729#2 14924729#3 -14924729#3"/>
    </vehicle>
    <vehicle id="motorcycle6" type="motorcycle_motorcycle" depart="3.89" departLane="best">
        <route edges="39763700#5 39763700#6 -1074771160 -24576913#2 -24576913#1 -24576913#0 10628430 1125986386 513272949 39838530 511409187 147711065#0 147711065#1 147711065#2 1068916338 -1068916339 -1125986377#2 -1125986377#1 -1125986377#0 -83428923#1 -83428923#0 83428923#0"/>
    </vehicle>
    <vehicle id="motorcycle7" type="motorcycle_motorcycle" depart="4.54" departLane="best">
        <route edges="-10748045#0 -1254816452 -654297636 -654297637#2 -654297637#1 -654297637#0 -1125986374 1237953493 83428923#0 83428923#1 1125986377#0 1125986377#1"/>
    </vehicle>
    <vehicle id="motorcycle8" type="motorcycle_motorcycle" depart="5.19" departLane="best">
        <route edges="-564273553#1 -564273553#0 -654297629#6 -654297629#5 -654297629#4 -654297629#3 -654297629#2 -654297629#1 -654297629#0 -1074409256#2 -1074409256#0 -1074771160 -24576913#2 -24576913#1 -24576913#0 10628430 1125986386 513272949 39838530 511409187 147711065#0 147711065#1 147711065#2 -654297630 -1125986406#1"/>
    </vehicle>
    <vehicle id="motorcycle9" type="motorcycle_motorcycle" depart="5.84" departLane="best">
        <route edges="39920550#7 39920550#8 39920550#10 39920550#11 39920550#12 39921025#3 39921025#4 24621218#2 24621218#3 24621218#4 -39920593#6 -39920593#5 -39920593#4 -39920593#3 -39920593#2 -39920593#1 -39920593#0 -1323097576 -40036062#1 -40036062#0 490474063#0"/>
    </vehicle>
    <vehicle id="motorcycle10" type="motorcycle_motorcycle" depart="6.49" departLane="best">
        <route edges="1068434235 1214520078 1260481154 1260481155 1254816442 1231065643 856175963 -1292541108 -509646052 1068916339 1254816455 10628444#0 10628444#1 10628444#2 1335304377 900279886 1335304385 1324405511 1335304375 1335304374 475044040#0 475044040#1 475044040#2 475044040#3 475044040#4 1323097575#1 1323097575#2 1323097575#3 490474063#0 490474063#1 490474063#2 490474063#3 490474063#4"/>
    </vehicle>
    <vehicle id="motorcycle11" type="motorcycle_motorcycle" depart="7.14" departLane="best">
        <route edges="499566574#2 654297634 654297633 238219441#0 238219441#1 238219441#2 -1125986385#1 -1125986385#0 -10250021#4 -10250021#3 -10250021#2 -10250021#0 -1125986378#1 -1125986378#0"/>
    </vehicle>
    <vehicle id="motorcycle12" type="motorcycle_motorcycle" depart="7.78" departLane="best">
        <route edges="39838984#1 -47224972#1 -47224972#0 -509646056 509646055 509646144 1068434235 1214520078 -1237953494 15420801#0 15420801#1 15420801#2"/>
    </vehicle>
    <vehicle id="motorcycle13" type="motorcycle_motorcycle" depart="8.43" departLane="best">
        <route edges="24621218#2 24621218#3 24621218#4 -40297715#3 -40297715#2 -40297715#1 -40297715#0 1324405511 1335304375 -1222703383"/>
    </vehicle>
    <vehicle id="motorcycle14" type="motorcycle_motorcycle" depart="9.08" departLane="best">
        <route edges="1222703382 15419875#1 39921192#0 39921192#1 488788626#0 488788626#1 488788626#2 488788626#3 178699054 1064476624 178699051#0 178699051#1 985133430 511404873#0 511404873#1 -1125986386"/>
    </vehicle>
    <vehicle id="motorcycle15" type="motorcycle_motorcycle" depart="9.73" departLane="best">
        <route edges="-40140017#3 40140017#3 -654297631 -39921673#1 -39921673#0 10628444#0 10628444#1 10628444#2 1335304377 900279886 1335304385 39921192#0 39921192#1 -474143552#6 -474143552#5 -474143552#4 -474143552#3 -474143552#2 39920505#4 39920505#5 39920505#6 39920505#7 39920505#8 39920505#9 39920505#11"/>
    </vehicle>
    <vehicle id="motorcycle16" type="motorcycle_motorcycle" depart="10.38" departLane="best">
        <route edges="490474063#8 15419875#0 15419875#1 39921192#0 39921192#1 488788626#0 488788626#1 488788626#2 488788626#3 178699054 1064476624 178699051#0 178699051#1 985133430 511404873#0 511404873#1 513272950#0 513272950#1 39838630#1 39838630#2"/>
    </vehicle>
    <vehicle id="motorcycle17" type="motorcycle_motorcycle" depart="11.03" departLane="best">
        <route edges="10628442#1 1125986377#1 1125986377#2 1068916339 1254816455 10628444#0 10628444#1 10628444#2 1335304377 900279886 1335304385 39921192#0 39921192#1 488788626#0 488788626#1 488788626#2 39921025#0 39921025#1 39921025#2 39921025#3 39920505#2"/>
    </vehicle>
    <vehicle id="motorcycle18" type="motorcycle_motorcycle" depart="11.68" departLane="best" departSpeed="max">
        <route edges="-687878725 12090453#1 1421367925 405382146#0 405382146#1 521705694#0 1068434200#0 1068434200#1 521704042#0 1125986387 1214520075 509524270 40322293 1214520070 1068434236 509646055 509646144 -1214520079 -968332509 -1292541108 -509646052 1068916339 488788637#0 -10628442#2"/>
    </vehicle>
    <vehicle id="motorcycle19" type="motorcycle_motorcycle" depart="12.33" departLane="best">
        <route edges="39763700#6 -1074771160 -24576913#2 -24576913#1 -24576913#0 10628430 1125986386 513272949 39838530 511409187 147711065#0 147711065#1 147711065#2 1068916338 -1068916339 509646052 1292541108 968332509 1214520079 1068434202 1332638391#0 -422842976"/>
    </vehicle>
    <vehicle id="motorcycle20" type="motorcycle_motorcycle" depart="12.97" departLane="best">
        <route edges="499566574#3 10748045#0 10748045#1 10748045#2 1064476622#0 1064476622#1 1254633078#1 1067953239#0 1067953239#1 -40138239#4 -40138239#3 50323226"/>
    </vehicle>
    <vehicle id="motorcycle21" type="motorcycle_motorcycle" depart="13.62" departLane="best">
        <route edges="1335304371 -1335304371 40139708 1335304372 1335304386#0 1335304386#1 -900279886 -1335304377 -10628444#2 -10628444#1 -10628444#0 -1254816455 -1068916339 -10628429 479863106#0 479863106#1 479863106#2 511187818"/>
    </vehicle>
    <vehicle id="motorcycle22" type="motorcycle_motorcycle" depart="14.27" departLane="best" departSpeed="max">
        <route edges="24577455#0 24577455#1 24577455#2 1235501861#1 1235501861#2 1064476624 1067852461 40297647#0 40297647#1 40297647#2 1235501862 1100626103#0 1100626103#1 1100626103#2 1100626103#3 967985513#0 967985513#1 967985513#2 178441748#0"/>
    </vehicle>
    <vehicle id="motorcycle23" type="motorcycle_motorcycle" depart="14.92" departLane="best">
        <route edges="654297629#5 654297629#6 -654297629#6 -654297629#5 -654297629#4 -654297629#3 -654297629#2 -654297629#1 -654297629#0 -1074409256#2 -1074409256#0 -1074771160 -24576913#2 -24576913#1 -24576913#0 10628430 1125986386 513272949 39838530 511409187 147711065#0 147711065#1 147711065#2 1068916338 1254816455 10628444#0 10628444#1 10628444#2 1335304377 900279886 1335304385 40297715#0 40297715#1 39920550#0 39920550#1 39920550#2 39920550#3 39920550#4"/>
    </vehicle>
    <vehicle id="motorcycle24" type="motorcycle_motorcycle" depart="15.57" departLane="best">
        <route edges="-1260485931#1 1260485931#1 654297636 1254816452 10748045#0 10748045#1 10748045#2 1323097575#0 1323097575#1 1323097575#2 1323097575#3 490474063#0 490474063#1 490474063#2 490474063#3 490474063#4 490474063#5 490474063#6 490474063#7 490474063#8 15419875#0 15419875#1 39921192#0 39921192#1 488788626#0 488788626#1 488788626#2 488788626#3 178699054 465144361 178699049 178699058 513082627 1290456019 39839107 439836130#0 439836130#0-AddedOffRampEdge 39839275 335802664 439836132 1231065652-AddedOnRampEdge 1231065652"/>
    </vehicle>
    <vehicle id="motorcycle25" type="motorcycle_motorcycle" depart="16.22" departLane="best">
        <route edges="449565665#3 10628430 1125986386 513272949 39838530 511409187 147711065#0 147711065#1 147711065#2 1068916338 -1068916339 509646052 -1260485929#3 -1260485929#2 -856175964"/>
    </vehicle>
    <vehicle id="motorcycle26" type="motorcycle_motorcycle" depart="16.87" departLane="best">
        <route edges="142741729#0 142741729#1 72157794 499566573 499566574#0"/>
    </vehicle>
    <vehicle id="motorcycle27" type="motorcycle_motorcycle" depart="17.52" departLane="best">
        <route edges="-513272949 513272949 39838530 511409187 147711065#0 147711065#1 147711065#2 1068916338 1254816455 10628444#0 10628444#1 10628444#2 1335304377 900279886 1335304385 40297715#0 40297715#1 40297715#2 40297715#3 -39920593#6 -39920593#5 -401226926#1 401226926#1"/>
    </vehicle>
    <vehicle id="motorcycle28" type="motorcycle_motorcycle" depart="18.16" departLane="best" departSpeed="max">
        <route edges="-687878725 12090453#1 1421367925 405382146#0 405382146#1 521705694#0 521705694#1 654297628 1068434256#0 1068434256#1 521708587#0 521708587#1 521708587#2 1214520067"/>
    </vehicle>
    <vehicle id="motorcycle29" type="motorcycle_motorcycle" depart="18.81" departLane="best">
        <route edges="24576922#0 24576922#1 24576922#2 1074771163#0 1074771163#1 1074771163#1-AddedOffRampEdge 1272548721 1074409232#0 1074409232#1 1064476623 1067852461 47157282#0 47157282#1 1237953497 1324405511 1335304375 -1222703383 142741729#0 142741729#1"/>
    </vehicle>
    <vehicle id="motorcycle30" type="motorcycle_motorcycle" depart="19.46" departLane="best">
        <route edges="1067928307#2 1067928307#3 488788630#0 488788630#1 488788630#2 428730818#0 428730818#1 428730818#2 428730818#3 1421564739 428730807 1226645407 1226645410 1074771170 47087992#0 47087992#1 47087992#2 47087992#3 47087992#4 47087992#5 -1068144844 1068144844"/>
    </vehicle>
    <vehicle id="motorcycle31" type="motorcycle_motorcycle" depart="20.11" departLane="best">
        <route edges="-1290439817#1 -1290439817#0 -1255099069 -1297720367 -1297720376#1 -1297720376#0 1255099064 1204070282 515040937 178699054 1064476624 178699051#0 178699051#1 985133430 511404873#0 511404873#1 513272950#0 513272950#1 666886082#0 666886082#1 1068434257 1068434203 40297885#1 40297885#2 654297628 1068434256#0 1068434256#1 521701858"/>
    </vehicle>
    <vehicle id="motorcycle32" type="motorcycle_motorcycle" depart="20.76" departLane="best">
        <route edges="573632774 40138941#2 1260481151 900287035 985675139 47088302#0 47088302#1 1064398309#0 1064398309#1 1323097575#0 1323097575#1 1323097575#2 1323097575#3 490474063#0 490474063#1 490474063#2 490474063#3 490474063#4 490474063#5 490474063#6 490474063#7 -40035325#2 -40035325#1 -40035325#0 40035325#0"/>
    </vehicle>
    <vehicle id="motorcycle33" type="motorcycle_motorcycle" depart="21.41" departLane="best">
        <route edges="39921025#2 39920550#13 1235501860 1235501861#0 1235501861#1"/>
    </vehicle>
    <vehicle id="motorcycle34" type="motorcycle_motorcycle" depart="22.06" departLane="best">
        <route edges="40140141#5 40140141#6 40140141#7 40140141#8 40140141#9 40140141#10 40140141#11 1237953494 1260481154 1260481155 1254816442 1231065643 856175963 -1292541108 -509646052 -1125986377#2 -1125986377#1 -10628442#1 -10628442#0"/>
    </vehicle>
    <vehicle id="motorcycle35" type="motorcycle_motorcycle" depart="22.71" departLane="best">
        <route edges="1064476624 1067852461 47157282#0 47157282#1 1237953497 1324405511 1335304375 1335304374 490474063#8 15419875#0 15419875#1"/>
    </vehicle>
    <vehicle id="motorcycle36" type="motorcycle_motorcycle" depart="23.35" departLane="best">
        <route edges="-47267010 -450616334#0 -1211151635#1 -1211151635#0 -1211151638 1211151639 521704036 1068434168 1068434199 1068434200#0 1068434200#1 521704042#0 -511187807 -39838751#2 -39838630#2 -39838630#1"/>
    </vehicle>
    <vehicle id="motorcycle37" type="motorcycle_motorcycle" depart="24.00" departLane="best">
        <route edges="-428730813#0 -488788630#2 -488788630#1 -488788630#0 -1067928307#3"/>
    </vehicle>
    <vehicle id="motorcycle38" type="motorcycle_motorcycle" depart="24.65" departLane="best">
        <route edges="1323097579#0 1323097579#1 39921025#6 39921025#7 178441748#1 178441748#2 1323097580#0 39920011#1"/>
    </vehicle>
    <vehicle id="motorcycle39" type="motorcycle_motorcycle" depart="25.30" departLane="best">
        <route edges="1064476620#3 1068074793 238219449 654297635#0 654297635#1 654297633 238219441#0 238219441#1 238219441#2 -1125986385#1 -1125986385#0 -488788637#1 -488788637#0 -1068916338 -147711065#2 -147711065#1 -147711065#0 -511409187 -39838530"/>
    </vehicle>
    <vehicle id="motorcycle40" type="motorcycle_motorcycle" depart="25.95" departLane="best">
        <route edges="521701857 39366819#0 39366819#1 449565665#0 449565665#1 449565665#2 449565665#3 10628430 39838751#0"/>
    </vehicle>
    <vehicle id="motorcycle41" type="motorcycle_motorcycle" depart="26.60" departLane="best">
        <route edges="39920593#6 1324405519 49224804#0 -40035904#2 -40035904#1 40035904#1"/>
    </vehicle>
    <vehicle id="motorcycle42" type="motorcycle_motorcycle" depart="27.25" departLane="best">
        <route edges="1067953239#1 -40138239#4 -40138239#3 50323226 -40138633#2 -40138633#1 -40138633#0 -40109239 -10749498 47088302#0 47088302#1 1064398309#0 1064398309#1 1323097575#0 1323097575#1 1323097575#2 1323097575#3 490474063#0 490474063#1 490474063#2 490474063#3 490474063#4 490474063#5 490474063#6 490474063#7 490474063#8 15419875#0 15419875#1 39921192#0 39921192#1 488788626#0 488788626#1 488788626#2 488788626#3 40297647#0 40297647#1 40297647#2 1235501862 1100626103#0 1100626103#1 24621218#0 24621218#1"/>
    </vehicle>
    <vehicle id="motorcycle43" type="motorcycle_motorcycle" depart="27.90" departLane="best">
        <route edges="488788626#1 488788626#2 488788626#3 178699054 1064476624 1067852461 47157282#0 47157282#1 1237953497 1324405511 1335304375 1335304374 475044040#0 475044040#1 475044040#2 475044040#3 475044040#4 1272337501 1064476622#0 1064476622#1 1064476620#0 1064476620#1 1064476620#2 1068074792 -1068074793"/>
    </vehicle>
    <vehicle id="motorcycle44" type="motorcycle_motorcycle" depart="28.54" departLane="best">
        <route edges="47225638#4 1298335702 666886081 515126385#0 515126385#1 515124966 -1068144846#2 -1068144846#1 -1068144846#0 -451728952#5 -451728952#4 -451728952#3 -451728952#1 -240666072#2"/>
    </vehicle>
    <vehicle id="motorcycle45" type="motorcycle_motorcycle" depart="29.19" departLane="best">
        <route edges="1214520079 1068434202 1332638391#0 -1332638391#0 -1068434202 -1214520079 -968332509 -1292541108 -509646052 1068916339 488788637#0 488788637#1 1125986385#0 1125986385#1 -238219441#2 -238219441#1 -238219441#0 -654297633 -654297635#1 -654297635#0 654297635#0 654297635#1"/>
    </vehicle>
    <vehicle id="motorcycle46" type="motorcycle_motorcycle" depart="29.84" departLane="best">
        <route edges="-564273553#1 -564273553#0 -654297629#6 -654297629#5 -654297629#4 -654297629#3 -654297629#2 -654297629#1 -654297629#0 -1074409256#2 -1074409256#0 -1074771160 -24576913#2 -24576913#1 -24576913#0 10628430 1125986386 513272949 39838530 511409187 147711065#0 147711065#1 147711065#2 1068916338 -1068916339 509646052 1292541108 968332509 1214520079 1068434202 1332638391#0 1332638391#1 1332638391#2 14924729#0 14924729#1 9704194#0 9704194#1 40140141#5 40140141#6 40140141#7 40140141#8 40140141#9 -761486028#1"/>
    </vehicle>
    <vehicle id="motorcycle47" type="motorcycle_motorcycle" depart="30.49" departLane="best">
        <route edges="-39920593#5 -39920593#4 -39920593#3 40035325#0 40035325#1 40035325#2 475044040#0 475044040#1 475044040#2 475044040#3 475044040#4 1272337501 -10748045#2 -10748045#1 -10748045#0 -1254816452 654297635#0 654297635#1 654297633 -654297633"/>
    </vehicle>
    <vehicle id="motorcycle48" type="motorcycle_motorcycle" depart="31.14" departLane="best">
        <route edges="1204070283#1 1125986406#0 1125986406#1 1254816454 10628444#0 10628444#1 10628444#2 1335304377 900279886 1335304385 1324405511 1335304375 1335304374 475044040#0"/>
    </vehicle>
    <vehicle id="motorcycle49" type="motorcycle_motorcycle" depart="31.79" departLane="best">
        <route edges="39920505#3 -474143552#1 24621218#4 -39920593#6 -39920593#5 -39920593#4 -39920593#3 -39920593#2 -39920593#1 -39920593#0 -1323097576 -1323097577 -1273405490 -1236283454 33683346#0 33683346#1 -40036009#3 -40036009#2 -40036009#1 -40036009#0 -40109290#4 -40109290#3"/>
    </vehicle>
    <vehicle id="motorcycle50" type="motorcycle_motorcycle" depart="32.44" departLane="best">
        <route edges="-40140017#2 -40140017#1 72157792 238219441#1 238219441#2 -1125986385#1 -1125986385#0 -488788637#1 -488788637#0 -1068916338 -147711065#2 -147711065#1 -147711065#0 -511409187 515040940#0 515040940#1 1204070281 515040937 40297647#0 40297647#1 40297647#2 1235501862"/>
    </vehicle>
    <vehicle id="motorcycle51" type="motorcycle_motorcycle" depart="33.09" departLane="best">
        <route edges="513272950#0 513272950#1 666886083 178702258#1 178702258#2 509524270 40322293 1214520070 1068434236 509646055 509646144 -1214520079 -968332509 -1292541108 -509646052 1068916339 488788637#0 488788637#1 1125986385#0 1125986385#1 1125986373#0 1125986373#1 1125986373#2 1125986373#3 654297637#0 654297637#1 654297637#2 -1260485931#1 -1260485931#0 1260485931#0"/>
    </vehicle>
    <vehicle id="motorcycle52" type="motorcycle_motorcycle" depart="33.73" departLane="best">
        <route edges="1125986373#3 654297637#0 654297637#1 654297637#2 654297636 1254816452 10748045#0 10748045#1 10748045#2 1064476622#0 1064476622#1 1254633078#1"/>
    </vehicle>
    <vehicle id="motorcycle53" type="motorcycle_motorcycle" depart="34.38" departLane="best">
        <route edges="47267011#2 12090453#0 12090453#1 1421367925 405382146#0 405382146#1 521705694#0 1068434200#0 1068434200#1 521704042#0 1125986387 1214520075 509524270 40322293 1214520070 1068434236 509646055 509646144 -1214520079 -968332509 -1292541108 -1260485929#3 -1260485929#2 -856175964"/>
    </vehicle>
    <vehicle id="motorcycle54" type="motorcycle_motorcycle" depart="35.03" departLane="best">
        <route edges="-40138633#3 -40138633#2 -40138633#1 -40138633#0 -40109239 -10749498 47088302#0 47088302#1 1064398309#0 1064398309#1 1323097575#0 1323097575#1 1323097575#2 1323097575#3 490474063#0 490474063#1 490474063#2 490474063#3 490474063#4 490474063#5 490474063#6 490474063#7 490474063#8 15419875#0 15419875#1 -1335304385 -900279886 -1335304377 -10628444#2 -10628444#1 -10628444#0 -1254816455 -1068916339 -1125986377#2 -1125986377#1"/>
    </vehicle>
    <vehicle id="motorcycle55" type="motorcycle_motorcycle" depart="35.68" departLane="best">
        <route edges="-1074409256#2 -1074409256#0 1074409256#0 1074409256#2 654297629#0 654297629#1 654297629#2 654297629#3 654297629#4 654297629#5 654297629#6 564273553#0 564273553#1 564273553#2 564273553#3 564273553#4 1214520068 12247569 1211151638 1211151635#0 1211151635#1 450616334#0 730912750 -730912750"/>
    </vehicle>
    <vehicle id="motorcycle56" type="motorcycle_motorcycle" depart="36.33" departLane="best">
        <route edges="1064398309#0 1064398309#1 1323097575#0 -33683458#2 -33683458#1 -33683458#0 33683346#0 33683346#1 -40036009#3 -40036009#2 -40036009#1 -40036009#0 -40109290#4"/>
    </vehicle>
    <vehicle id="motorcycle57" type="motorcycle_motorcycle" depart="36.98" departLane="best">
        <route edges="1068074793 238219449 654297635#0 654297635#1 654297633 40140017#0"/>
    </vehicle>
    <vehicle id="motorcycle58" type="motorcycle_motorcycle" depart="37.63" departLane="best">
        <route edges="511187811 509524270 40322293 1214520070 1068434236 509646055 509646144 -1214520079 -968332509 -1292541108 1292541108 968332509 1214520079 1068434202"/>
    </vehicle>
    <vehicle id="motorcycle59" type="motorcycle_motorcycle" depart="38.27" departLane="best">
        <route edges="1068434202 1332638391#0 -1332638391#0 -1068434202 -1214520079 -968332509 -1292541108 -509646052 1068916339 1254816455 10628444#0 10628444#1 10628444#2 1335304377 900279886 1335304385 39921192#0 39921192#1 488788626#0 488788626#1 488788626#2 39921025#0 39921025#1 39920684#1 39920684#2"/>
    </vehicle>
    <vehicle id="motorcycle60" type="motorcycle_motorcycle" depart="38.92" departLane="best">
        <route edges="654297629#5 654297629#6 -654297629#6 -654297629#5 -654297629#4 -654297629#3 -654297629#2 -654297629#1 -654297629#0 -1074409256#2 -1074409256#0 -1074771160 -24576913#2 -24576913#1 -24576913#0 10628430 1125986386 513272949 39838530 511409187 147711065#0 147711065#1 147711065#2 1068916338 -1068916339 509646052 -1260485929#3"/>
    </vehicle>
    <vehicle id="motorcycle61" type="motorcycle_motorcycle" depart="39.57" departLane="best">
        <route edges="666886086#2 666886086#3 1290439819 178583167#0 178583167#1 24621218#0 24621218#1 24621218#2 24621218#3 24621218#4 -39920593#6 -39920593#5 -401226926#1 -116831467"/>
    </vehicle>
    <vehicle id="motorcycle62" type="motorcycle_motorcycle" depart="40.22" departLane="best">
        <route edges="-1068144844 1068144844 1068144848#0 1068144848#1 1068144847 47087366#0 47087366#1 47225638#1 47225638#3 47225638#4 1298335702 666886081 515126385#0 515126385#1 515126385#2 515126385#3 515126385#4 515126384 1074771170 47087992#0"/>
    </vehicle>
    <vehicle id="motorcycle63" type="motorcycle_motorcycle" depart="40.87" departLane="best">
        <route edges="178583140#0 24577522#1 24577455#2 1235501861#1 1235501861#2 1064476624 1067852461 47157282#0 47157282#1 1237953497 1324405511 1335304375 1335304374 -40035325#2 -40035325#1 -40035325#0 -39920593#2 -39920593#1 -39920593#0 -1323097576 -1323097577 -1273405490 -1236283454 -1273251151 -1273251152 -1254633077#1 40109290#0 40109290#1 -50323229#15 -50323229#14 -50323229#13 -50323229#11 -50323229#10 -50323229#9 -50323229#7 -50323229#6 -50323229#5 -50323229#3 -50323229#2 -50323229#0 50323229#0 50323229#2 50323229#3 50323229#5 50323229#6 50323229#7 50323229#9 50323229#10 50323229#11"/>
    </vehicle>
    <vehicle id="motorcycle64" type="motorcycle_motorcycle" depart="41.52" departLane="best">
        <route edges="511405572 1214520070 509646061 509646062 509646057#0 509646057#1 509646057#2 1332638391#0 1332638391#1 1332638391#2 14924729#0 14924729#1 14924729#2 14924729#3"/>
    </vehicle>
    <vehicle id="motorcycle65" type="motorcycle_motorcycle" depart="42.17" departLane="best">
        <route edges="-1068916336 1237953497 -1335304385 -900279886 -1335304377 1335304376#0 1335304376#1 72157794 499566573 -40139504#1 -10629474#1 -10629474#0"/>
    </vehicle>
    <vehicle id="motorcycle66" type="motorcycle_motorcycle" depart="42.82" departLane="best">
        <route edges="-1067928307#3 -1067928307#2 -1067928307#0 240666069#0 240666069#1 240666069#2 240666069#3 428730800 405382146#0"/>
    </vehicle>
    <vehicle id="motorcycle67" type="motorcycle_motorcycle" depart="43.46" departLane="best">
        <route edges="39838630#1 39838630#2 -39838751#1 -39838751#0 1125986386 513272949 39838530 511409187 147711065#0 147711065#1 147711065#2 1068916338 -1068916339 -1125986377#2 -1125986377#1 -1125986377#0 -83428923#1 -83428923#0 238219472#0"/>
    </vehicle>
    <vehicle id="motorcycle68" type="motorcycle_motorcycle" depart="44.11" departLane="best">
        <route edges="1222703383 1335304374 475044040#0 475044040#1 475044040#2 475044040#3 475044040#4 -33683458#2 -33683458#1 -33683458#0 33683346#0 33683346#1 -40036009#3 -40036009#2 -40036009#1 -40036009#0 40036009#0 40036009#1 40036009#2 40036009#3"/>
    </vehicle>
    <vehicle id="motorcycle69" type="motorcycle_motorcycle" depart="44.76" departLane="best">
        <route edges="1125986406#1 654297630 -147711065#2 -147711065#1 -147711065#0 -511409187 -39838530 -513272949 -1125986386 -10628430 24576913#0 24576913#1 24576913#2 1074771160 1074409256#0 1074409256#2 654297629#0 654297629#1 654297629#2 654297629#3 654297629#4 654297629#5 654297629#6 564273553#0 564273553#1"/>
    </vehicle>
    <vehicle id="motorcycle70" type="motorcycle_motorcycle" depart="45.41" departLane="best">
        <route edges="13909444#0 13909444#1 -8887999#0 967993112#1 511405572 1214520071 1214520072 511187811 1125986369 1068434257 1068434203 40297885#1 521701859 511187808#4-AddedOnRampEdge 511187808#4 521704053"/>
    </vehicle>
    <vehicle id="motorcycle71" type="motorcycle_motorcycle" depart="46.06" departLane="best">
        <route edges="-47224972#0 -509646056 -900279869 -1214520076 511187823 1068434258 1214520072 511187811 1125986369 1068434257 1068434203 40297885#1 40297885#2 654297628 1068434256#0 1068434256#1 521708587#0 521708587#1 521708587#2 1214520067 -564273553#4 -564273553#3 -564273553#2 -564273553#1 -564273553#0 -654297629#6 -654297629#5 -654297629#4 -654297629#3 -654297629#2 -654297629#1"/>
    </vehicle>
    <vehicle id="motorcycle72" type="motorcycle_motorcycle" depart="46.71" departLane="best">
        <route edges="-83428923#0 -1237953493 1125986374 654297637#0 654297637#1 654297637#2 654297636 1254816452 10748045#0 10748045#1 10748045#2 1323097575#0 -33683458#2 -33683458#1 -33683458#0 -1273251151 -1273251152 -1254633077#1 40109290#0 40109290#1 -50323229#15 -50323229#14 -50323229#13 -50323229#11 -50323229#10 -50323229#9 -50323229#7 -50323229#6 -50323229#5 -50323229#3 -50323229#2 -50323229#0"/>
    </vehicle>
    <vehicle id="motorcycle73" type="motorcycle_motorcycle" depart="47.36" departLane="best">
        <route edges="478286980#1 509524271 511409188#0 511409188#1 1234244927#0 1234244927#1 515040940#0 515040940#1 1204070281 515040937 47157282#0 47157282#1 1237953497 1324405511 1335304375 1335304374 490474063#8 15419875#0 15419875#1"/>
    </vehicle>
    <vehicle id="motorcycle74" type="motorcycle_motorcycle" depart="48.01" departLane="best">
        <route edges="-1323097580#0 1323097580#0 1323097580#1 474143552#0 474143552#1 474143552#2 474143552#3 474143552#4 474143552#5 474143552#6 1237953497 1324405511 1335304375 1335304374"/>
    </vehicle>
    <vehicle id="motorcycle75" type="motorcycle_motorcycle" depart="48.65" departLane="best">
        <route edges="39921673#0 -10628442#3 -488788637#0 -1068916338 -147711065#2 -147711065#1 -147711065#0 -511409187 515040940#0 515040940#1 1204070281 515040937 40297647#0 40297647#1 40297647#2 1235501862 1100626103#0 1100626103#1 1100626103#2 1100626103#3 1196008691#0"/>
    </vehicle>
    <vehicle id="motorcycle76" type="motorcycle_motorcycle" depart="49.30" departLane="best">
        <route edges="-1067928307#0"/>
    </vehicle>
    <vehicle id="motorcycle77" type="motorcycle_motorcycle" depart="49.95" departLane="best">
        <route edges="1214520076 900279869 -900279869 -1214520076 511187823 1068434258 1214520072 511187811 1125986369 509524230 1298335704#0 1298335704#1 1214520074#0 1214520074#1 1214520074#2 1214520074#3 1214520074#4"/>
    </vehicle>
    <vehicle id="motorcycle78" type="motorcycle_motorcycle" depart="50.60" departLane="best">
        <route edges="1068144845#4 -1068144845#4 -1068144845#3 -1068144845#2 -1068144845#1 -1068144845#0 -1332638368#2 -1332638368#1 -1332638368#0 -14924729#3 -14924729#2 -14924729#1 -14924729#0 -1332638391#2 -1332638391#1 -1332638391#0 -1068434202 1068434235 1214520078 1260481154 1260485930#1 -169562956 -1125986375#0"/>
    </vehicle>
    <vehicle id="motorcycle79" type="motorcycle_motorcycle" depart="51.25" departLane="best">