<?xml version="1.0" encoding="UTF-8"?>

<!-- generated on 2025-12-13T17:14:08.259542+08:00 by Eclipse SUMO duarouter 1.25.0
<duarouterConfiguration xmlns:xsi="http://www.w3.org/2001/XMLSchema-instance" xsi:noNamespaceSchemaLocation="http://sumo.dlr.de/xsd/duarouterConfiguration.xsd">

    <input>
        <net-file value="yanan_elevated.net.xml"/>
        <route-files value="osm.bicycle.trips.xml"/>
    </input>

    <output>
        <output-file value="osm.bicycle.rou.xml"/>
    </output>

    <report>
        <ignore-errors value="true"/>
    </report>

</duarouterConfiguration>
-->

<routes xmlns:xsi="http://www.w3.org/2001/XMLSchema-instance" xsi:noNamespaceSchemaLocation="http://sumo.dlr.de/xsd/routes_file.xsd">
    <vType id="bike_bicycle" vClass="bicycle"/>
    <vehicle id="bike0" type="bike_bicycle" depart="0.00" departLane="best">
        <route edges="1214520071 1234244925#0 -511187813#3 -511409188#0 -509524271 40322293 1214520070 1068434236 509646055 509646144 -1214520079 -968332509 -1292541108 -509646052 -1125986377#2 -1125986377#1 -1125986377#0 10250021#0 10250021#2 10250021#3 10250021#4 1125986379#0 1125986379#1 654297631 654297632#0 654297632#2 499566577#0 499566577#1 1335304371 475044040#1 475044040#2 475044040#3 475044040#4 1272337501 -10748045#2"/>
    </vehicle>
    <vehicle id="bike1" type="bike_bicycle" depart="0.71" departLane="best">
        <route edges="-440024351#3"/>
    </vehicle>
    <vehicle id="bike2" type="bike_bicycle" depart="1.42" departLane="best" departSpeed="max">
        <route edges="238219443 1068074793 238219449 654297635#0 654297635#1 654297633 238219441#0 238219441#1 238219441#2 -1125986385#1 -1125986385#0 -488788637#1 -488788637#0 -1068916338 -147711065#2 -147711065#1 -147711065#0 -511409187 -39838530 -513272949 -1125986386 -10628430 24576913#0 24576913#1 24576913#2 1074771160 1074409256#0 1074409256#2 654297629#0 654297629#1 654297629#2 654297629#3 654297629#4 654297629#5 654297629#6 564273553#0 564273553#1 564273553#2 564273553#3 564273553#4 1214520068 12247569 1211151638 1211151635#0 1211151635#1 450616334#0 730912750 413789558#0 47267007#0 47267007#1 47267007#2 488595378#0 488595378#1 1408949232#0 1408949236"/>
    </vehicle>
    <vehicle id="bike3" type="bike_bicycle" depart="2.13" departLane="best">
        <route edges="-83428923#1"/>
    </vehicle>
    <vehicle id="bike4" type="bike_bicycle" depart="2.84" departLane="best">
        <route edges="-1100626103#3 -1100626103#2 -1100626103#1 -1100626103#0 -1235501862 -40297647#2 -40297647#1 -40297647#0 178699054 1064476624 178699051#0 178699051#1 985133430 666886085#0 666886085#1 1100626087 39838530 511409187 147711065#0 147711065#1 147711065#2 1068916338 -1068916339 509646052 -1260485929#3"/>
    </vehicle>
    <vehicle id="bike5" type="bike_bicycle" depart="3.55" departLane="best">
        <route edges="1226645407 1226645410 -515126384 -515126385#4 -515126385#3 -515126385#2 -515126385#1 -515126385#0 -666886081 -515123442#4 -515123442#3 -515123442#2 -515123442#1 -515123442#0 -511404874#1 -511404874#0 509524270 40322293 1214520070 1068434236 509646055 509646144 -1214520079 -968332509 -1292541108 -509646052 1068916339 1254816455 10628444#0 10628444#1 10628444#2 1335304376#0 1335304376#1 -142741729#1 -1335304386#0 -1335304372 -1335304373#2 -1335304373#1 -1335304373#0 -40035325#2 -40035325#1 -40035325#0 -39920593#2 -39920593#1 116783865#0"/>
    </vehicle>
    <vehicle id="bike6" type="bike_bicycle" depart="4.26" departLane="best">
        <route edges="1211656986#0"/>
    </vehicle>
    <vehicle id="bike7" type="bike_bicycle" depart="4.97" departLane="best">
        <route edges="40138633#3 -40138633#3 -40138633#2 -40138633#1 -40138633#0 -40109239 1273251150#1 1272337498#0 1064476620#0 1064476620#1 1064476620#2 1068074792 238219449 654297635#0 654297635#1 654297633 238219441#0 238219441#1 238219441#2 -1125986385#1 -1125986385#0 -488788637#1 -10628442#2"/>
    </vehicle>
    <vehicle id="bike8" type="bike_bicycle" depart="5.67" departLane="best">
        <route edges="40109290#5 -40109290#5 40036009#0 40036009#1 40036009#2 40036009#3 401226925#0 401226925#1 401226926#0 401226926#1 39920593#5 39920593#6 -40297715#3 -40297715#2 39920550#0 39920550#1 39920550#2 39920550#3 39920550#4 39920550#5 39920550#6 39920550#7 39920550#8 39920550#10 39920550#11 39920550#12 39920550#13 1235501862 178583148#0 178583148#1 178583148#2-AddedOnRampEdge 178583148#2"/>
    </vehicle>
    <vehicle id="bike9" type="bike_bicycle" depart="6.38" departLane="best">
        <route edges="-479863118#1 479863118#1 -39838751#0 1125986386 513272949 39838530 511409187 147711065#0 147711065#1 147711065#2 1068916338 488788637#0 488788637#1 1125986379#0 1125986379#1 654297631 654297632#0 654297632#2 499566577#0 499566577#1 1335304371 475044040#1 475044040#2 475044040#3 475044040#4 -33683458#2 -33683458#1 -33683458#0 -1273251151 -1273251152 -1254633077#1 40109290#0 40109290#1 -50323229#15 -50323229#14 -50323229#13 -116837567"/>
    </vehicle>
    <vehicle id="bike10" type="bike_bicycle" depart="7.09" departLane="best" departSpeed="max">
        <route edges="-116831886#2 -116831887#0 116831881#1 116831881#2 116831881#3 116831881#4 116831881#5 116831881#6 116831881#7 116831881#9 116831881#10 116831881#11 116831881#13 40109290#4 40036009#0 40036009#1 40036009#2 40036009#3 401226925#0 401226925#1 401226926#0 401226926#1 39920593#5 39920593#6 -40297715#3 -40297715#2 39920550#0 39920550#1 39920550#2 39920550#3 39920550#4 39920550#5 -474143552#2 -474143552#1 -474143552#0 -1323097580#1 39920011#1 -116783801#1 -116783873#2 -116783873#0"/>
    </vehicle>
    <vehicle id="bike11" type="bike_bicycle" depart="7.80" departLane="best">
        <route edges="447887070 -1068144845#2 -1068144845#1 -1068144845#0 451728952#1 451728952#3 451728952#4 451728952#5 1068144846#0 1068144846#1 1068144846#2 -515130025 -515130026#1 515126304 -515126385#3 -1303832509 -1303832503#0 -1067928305#1 -1211970166#12 -1211970166#11 -1211970166#10 1211978033#1"/>
    </vehicle>
    <vehicle id="bike12" type="bike_bicycle" depart="8.51" departLane="best" departSpeed="max">
        <route edges="40138239#0 40138239#1 40138239#2 50323226 -40138633#2 -40138633#1 -40138633#0 -40109239 1273251150#1 1272337498#0 1064476620#0 1064476620#1 1064476620#2 1068074792 238219449 654297635#0 654297635#1 654297633 238219441#0 238219441#1 238219441#2 -1125986385#1 -1125986385#0 -488788637#1 -488788637#0 -1068916338 -147711065#2 -147711065#1 -147711065#0 -511409187 -39838530 -513272949 -1125986386 -10628430 -449565665#3 -449565665#2 -449565665#1 -449565665#0 -39366819#1 39366819#1"/>
    </vehicle>
    <vehicle id="bike13" type="bike_bicycle" depart="9.22" departLane="best" departSpeed="max">
        <route edges="116783864 116783916#1 39920505#6 39920505#7 39920505#8 39920505#9 39920505#11 39920505#12 -40297715#2 -40297715#1 -40297715#0 -1335304385 -900279886 -1335304377 -10628444#2 -10628444#1 -10628444#0 -1254816455 -1068916339 509646052 1292541108 968332509 1214520079 1068434202 1332638391#0 1332638391#1 1332638391#2 14924729#0 14924729#1 14924729#2 14924729#3 1332638368#0 1332638368#1 1332638368#2 451728952#1 -757506899#8 757506901#1 -757506900#0 757506899#1"/>
    </vehicle>
    <vehicle id="bike14" type="bike_bicycle" depart="9.93" departLane="best">
        <route edges="-515126385#4 -515126385#3 -515126385#2 -515126385#1 -515126385#0 -666886081 -515123442#4 -515123442#3 -515123442#2 -515123442#1 -515123442#0 -511404874#1 -511404874#0 509524270 40322293 1214520070 1068434236 509646055 509646144 -1214520079 -968332509 -1292541108 -509646052 -1125986377#2 -1125986377#1 -1125986377#0 10250021#0 10250021#2 10250021#3 10250021#4 1125986379#0 1125986379#1 654297631 654297632#0 654297632#2 499566577#0 499566577#1 1335304371 475044040#1 475044040#2 475044040#3 475044040#4 -33683458#2 -33683458#1 116783785#0 116783785#1 116783785#2 116783785#3 116783785#4 -116783805#1 -116783909#8 116783901#1"/>
    </vehicle>
    <vehicle id="bike15" type="bike_bicycle" depart="10.64" departLane="best">
        <route edges="428730818#3 1421564739 428730807 1226645407 1226645409"/>
    </vehicle>
    <vehicle id="bike16" type="bike_bicycle" depart="11.35" departLane="best">
        <route edges="451068209#2 -564273553#3 -564273553#2 -564273553#1 -564273553#0 -654297629#6 -654297629#5 -654297629#4 -654297629#3 -654297629#2 -654297629#1 -654297629#0 -1074409256#2 -1074409256#0 -1074771160 -24576913#2 -24576913#1 -24576913#0 -1131969257 -1201484855 -653860562 -1100626088 -1338361263 -178723097#1 -178723097#0 71269779 -178699051#1 -178699051#0 1067852461 47157282#0 47157282#1 1237953497 1324405511 1335304375 1335304374 -40035325#2 -40035325#1 -40035325#0 39920593#3 40035606#0 40035606#1 116837589"/>
    </vehicle>
    <vehicle id="bike17" type="bike_bicycle" depart="12.06" departLane="best" departSpeed="max">
        <route edges="142741764 -116783809#2 -116783809#1 -116783809#0 1222703382 15419875#1 39921192#0 39921192#1 -474143552#6 -474143552#5 -474143552#4 -474143552#3 -474143552#2 39920505#4 39920505#5 39920505#6 39920505#7 39920505#8 39920505#9 -116783765"/>
    </vehicle>
    <vehicle id="bike19" type="bike_bicycle" depart="13.48" departLane="best" departSpeed="max">
        <route edges="-116783922#1"/>
    </vehicle>
    <vehicle id="bike20" type="bike_bicycle" depart="14.19" departLane="best" departSpeed="max">
        <route edges="1211978033#0"/>
    </vehicle>
    <vehicle id="bike21" type="bike_bicycle" depart="14.90" departLane="best">
        <route edges="-513272949 513272950#0 513272950#1 666886082#0 666886082#1 509524230 1298335704#0 1298335704#1 1214520074#0 1214520074#1 509524229 515123442#3 515123442#4 666886081 515126385#0 515126385#1 515126385#2 -1303832509"/>
    </vehicle>
    <vehicle id="bike22" type="bike_bicycle" depart="15.60" departLane="best">
        <route edges="-436110595#5 -436110595#4 -436110595#3 -436110595#2 -436110595#1 -436110595#0 1068144848#1 1068144847 1068144846#0 1068144846#1 1068144846#2 985133427 1337646270 1298335702 -515123442#4 -515123442#3 -515123442#2 -515123442#1 -515123442#0 -511404874#1 -511404874#0 1125986369 1068434257 1068434203 -511187807 511187808#0 521701861"/>
    </vehicle>
    <vehicle id="bike23" type="bike_bicycle" depart="16.31" departLane="best">
        <route edges="1222703384#0 1222703384#1 9374529#1 1204070283#0 1204070283#1 1125986406#0 1125986406#1 654297630 488788629 479863106#0 479863106#1 47224973 1214520077 511187815 1068434258 1214520072 511187811 1125986369 509524230 1298335704#0 1298335704#1 1214520074#0"/>
    </vehicle>
    <vehicle id="bike24" type="bike_bicycle" depart="17.02" departLane="best">
        <route edges="-142741729#0 1222703383 -1222703383 142741729#0 1335304386#1 -900279886 -1335304377 -10628444#2 -10628444#1 -39921672 1204070283#1 1125986406#0 1125986406#1 654297630 -147711065#2 -147711065#1 -147711065#0 -511409187 -39838530 -513272949 -1125986386 -10628430 -449565665#3 -449565665#2 -449565665#1 -449565665#0 -39366819#1 -39366819#0 39366819#0"/>
    </vehicle>
    <vehicle id="bike25" type="bike_bicycle" depart="17.73" departLane="best">
        <route edges="-1408949231#0 -488595378#2 -488595378#1 -488595378#0 -47267007#2 -47267007#1 -47267007#0 -413789558#0 -730912750 47267010 405382146#1 521705694#0 1068434200#0 1068434200#1 521704042#0 1125986387 1214520075 509524270 40322293 1214520070 509646061 509646062 47224972#0 47224972#1 -47224972#1 -47224972#0 -509646056 -900279869 -1214520076 -511187818 -479863106#2"/>
    </vehicle>
    <vehicle id="bike26" type="bike_bicycle" depart="18.44" departLane="best">
        <route edges="856175963 511185049 1222181936 1222181935 1068434205 1068434204 511187823 1068434258 1214520072 511187811 511404874#0 511404874#1 515123442#0 515123442#1 515123442#2 515123442#3 515123442#4 666886081 515126385#0 515126385#1 515126385#2 515126385#3 515126385#4 515126302 1226645408 1226645409 515136609 1335845792#0 1335845793 -1277773031#3 -1277773031#1 -1277773031#0 1277773031#0"/>
    </vehicle>
    <vehicle id="bike27" type="bike_bicycle" depart="19.15" departLane="best">
        <route edges="440024343#1 -440024343#1 -440024343#0 -39838657#1 -39838657#0 39366819#1 449565665#0 449565665#1 449565665#2 449565665#3 10628430 1125986386 513272949 39838530 511409187 147711065#0 147711065#1 147711065#2 1068916338 488788637#0 488788637#1 1125986379#0 1125986379#1 654297631 654297632#0 654297632#2 499566577#0 499566577#1 1335304371 475044040#1 475044040#2 475044040#3 475044040#4 -33683458#2 -33683458#1 -33683458#0 -1273251151 -1273251152 -1254633077#1 40109290#0 40109290#1 40109290#2"/>
    </vehicle>
    <vehicle id="bike29" type="bike_bicycle" depart="20.57" departLane="best" departSpeed="max">
        <route edges="-451328104#1 -451328104#0 428730793#1 381945551 437445541#0 437445541#1 -12247568#1 -488788633#1 -488788633#0 -450616334#1 -450616334#0 -1211151635#1 -1211151635#0 -1211151638 -12247569 -1214520068 -564273553#4 -451068209#2 -451068209#1 451068211#0 451068212#0 451068221#0 -451068222 -449565666 -39838691#6 -39838691#5 -39838691#3"/>
    </vehicle>
    <vehicle id="bike30" type="bike_bicycle" depart="21.28" departLane="best">
        <route edges="-39838691#5 -39838691#3 -39838657#3 -39838657#2 -39838657#1 -39838657#0 39366819#1 449565665#0 449565665#1 449565665#2 449565665#3 10628430 1125986386 513272949 39838530 511409187 147711065#0 147711065#1 147711065#2 1068916338 488788637#0 488788637#1 1125986379#0 1125986379#1 654297631 654297632#0 654297632#2 499566573 499566574#0 499566574#1 499566574#2 499566574#3 10748045#0 10748045#1 10748045#2 1064476622#0 1064476622#1 1064476620#0 1064476620#1 573632774"/>
    </vehicle>
    <vehicle id="bike31" type="bike_bicycle" depart="21.99" departLane="best">
        <route edges="47088302#0"/>
    </vehicle>
    <vehicle id="bike32" type="bike_bicycle" depart="22.70" departLane="best">
        <route edges="1235501861#0"/>
    </vehicle>
    <vehicle id="bike33" type="bike_bicycle" depart="23.41" departLane="best">
        <route edges="50323229#3 50323229#5 50323229#6 50323229#7 50323229#9 50323229#10 50323229#11 50323229#13 50323229#14 50323229#15 -40109290#1 -40109290#0 1254633077#1 1273251152 1273251151 33683458#0 33683458#1 33683458#2 1272337501 -10748045#2 -10748045#1 -10748045#0 -1254816452 654297635#0 654297635#1 654297633 238219441#0 238219441#1 238219441#2 -1125986385#1 -1125986385#0 -10250021#4 -10250021#3 -10250021#2 -10250021#0 1125986377#0 1125986377#1 1125986377#2 -10628429 479863106#0 479863106#1 479863106#2 511187818 1214520076 900279869 -900279869"/>
    </vehicle>
    <vehicle id="bike34" type="bike_bicycle" depart="24.12" departLane="best">
        <route edges="-436110595#0"/>
    </vehicle>
    <vehicle id="bike35" type="bike_bicycle" depart="24.83" departLane="best" departSpeed="max">
        <route edges="116783916#0 116783916#1 39920505#6 39920505#7 39920505#8 39920505#9 39920505#11 39920505#12 -40297715#2 39920550#0 39920550#1 39920550#2 39920550#3 39920550#4 39920550#5 39920550#6 39920550#7 39920550#8 39920550#10 39920550#11 39920550#12 39920550#13 -40297647#2 -40297647#1 -40297647#0 178699054 1064476624 178699051#0 178699051#1 985133430 511404873#0 511404873#1 -1125986386 39838751#0 39838751#1 -39838630#2 -39838630#1"/>
    </vehicle>
    <vehicle id="bike36" type="bike_bicycle" depart="25.53" departLane="best" departSpeed="max">
        <route edges="116831884 50323229#6 50323229#7 50323229#9 50323229#10 50323229#11"/>
    </vehicle>
    <vehicle id="bike37" type="bike_bicycle" depart="26.24" departLane="best" departSpeed="max">
        <route edges="-687878725"/>
    </vehicle>
    <vehicle id="bike38" type="bike_bicycle" depart="26.95" departLane="best">
        <route edges="9704194#2 734452859#1 734452861#0 734453571 -257421487#0 40140141#10 40140141#11 1237953494 1260481154 1260481155 1125986378#0 1125986378#1 10250021#0 10250021#2 10250021#3 10250021#4 1125986385#0 1125986385#1 1125986373#0"/>
    </vehicle>
    <vehicle id="bike39" type="bike_bicycle" depart="27.66" departLane="best">
        <route edges="-1211970166#4 1211970166#4 1211970166#5 1211970166#6 1211970166#7 1211970166#8 1211970166#9 1211970166#10 1211970166#11 1211970166#12 1067928305#1 1067928305#2 428730800 405382146#0 405382146#1 521705694#0 521705694#1 521701857 39366819#0 39366819#1 449565665#0 449565665#1 449565665#2 449565665#3 10628430 1125986386 513272949 39838530 511409187 147711065#0 147711065#1 147711065#2 1068916338 488788637#0 488788637#1 1125986379#0 1125986379#1 654297631 654297632#0 654297632#2 499566577#0 499566577#1 1335304371 475044040#1 475044040#2 475044040#3 475044040#4 -33683458#2 -33683458#1 -33683458#0 -1273251151 -1273251152 -1254633077#1 1254633077#1"/>
    </vehicle>
    <vehicle id="bike40" type="bike_bicycle" depart="28.37" departLane="best">
        <route edges="39921025#6 39920011#3 -967985513#1 -967985513#0 -1100626103#3 -1100626103#2 -1100626103#1 -1100626103#0 -1235501862 -40297647#2 -40297647#1 -40297647#0 178699054 1064476624 178699051#0 178699051#1 985133430 666886085#0 666886085#1 1100626087 666886084#0 666886084#1 178702258#0 178702258#1 178702258#2 511404874#0 511404874#1 515123442#0 515123442#1 515123442#2 515123442#3 515123442#4 666886081 515126385#0 515126385#1 515126385#2 515126385#3 515126385#4 515126384 -515136605 -482569917#1 -482569917#0 -515136608"/>
    </vehicle>
    <vehicle id="bike41" type="bike_bicycle" depart="29.08" departLane="best">
        <route edges="-116783852 116783940#3 -116783809#5 -116783809#4 -116783809#3 -116783809#2 -116783809#1 -116783809#0 1222703382 15419875#1 39921192#0 39921192#1 488788626#0 488788626#1 488788626#2 488788626#3 178699054 465144361 1235754993#0 1235754993#1 421846558#0 421846558#1 178723097#0 178723097#1 1338361263 1100626088 653860562 1201484855 1131969257 24576913#0 24576913#1 24576913#2 1074771160 1074409256#0 1074409256#2 654297629#0 654297629#1 654297629#2 654297629#3 654297629#4 654297629#5 654297629#6 564273553#0 564273553#1 564273553#2 564273553#3 564273553#4 1214520068 12247569 1211151638 1211151635#0 1211151635#1 450616334#0 730912750 413789558#0 47267007#0 47267007#1 47267007#2 488595378#0 488595378#1 488595378#2 488595378#3 -488595376"/>
    </vehicle>
    <vehicle id="bike42" type="bike_bicycle" depart="29.79" departLane="best">
        <route edges="968332513#1 1260481150 900287035 985675139 47088302#0 47088302#1 1064398309#0 1064398309#1 1323097575#0 1323097575#1 1323097575#2 1323097575#3 490474063#0 490474063#1 490474063#2 490474063#3 490474063#4 490474063#5 490474063#6 490474063#7 490474063#8 15419875#0 15419875#1 39921192#0 39921192#1 -474143552#6 -474143552#5 -474143552#4 -474143552#3 -474143552#2 -474143552#1 -474143552#0 -1323097580#1 39920011#1 -116783801#1 116783801#1"/>
    </vehicle>
    <vehicle id="bike43" type="bike_bicycle" depart="30.50" departLane="best">
        <route edges="734452859#1 734452861#0 734453571 -257421487#0 -761486028#1 -761486028#0 1332638391#2 14924729#0 -8887999#2 -47087366#2 47087366#2"/>
    </vehicle>
    <vehicle id="bike44" type="bike_bicycle" depart="31.21" departLane="best">
        <route edges="-1067928305#0 1067928305#0 1067928305#1 1067928305#2 428730800 405382146#0 405382146#1 521705694#0 521705694#1 521701857 39366819#0 39366819#1 449565665#0 449565665#1 449565665#2 449565665#3 -1131969257 -1201484855 -653860562 -1100626088 -1338361263 -178723097#1 -178723097#0 71269779 -178699051#1 -178699051#0 -1064476624 -1235501861#2 -1235501861#1 -1235501861#0 178583140#0 24577522#1 24577522#2 24577522#3"/>
    </vehicle>
    <vehicle id="bike45" type="bike_bicycle" depart="31.92" departLane="best">
        <route edges="-436110595#5 -436110595#4 -436110595#3 -436110595#2 -436110595#1 -436110595#0 1068144848#1 1068144847 1068144846#0 1068144846#1 1068144846#2 -515130025 -515130026#1 -515130026#0 -515136607 -1226645410 1226645409 515136609 1335845792#0 1335845793 -1277773031#3 1277773031#3"/>
    </vehicle>
    <vehicle id="bike46" type="bike_bicycle" depart="32.63" departLane="best">
        <route edges="-1211970166#8 1211970166#8 1211970166#9 1211970166#10 1211970166#11 1211970166#12 1067928305#1 1067928305#2 1067928306#0 1067928306#1 1067928306#2 -515126385#1 -515126385#0 -666886081 -515123442#4 -515123442#3 -515123442#2 -515123442#1 -515123442#0 -511404874#1 -511404874#0 -178702258#2 -178702258#1 -178702258#0 -666886084#1 -666886084#0"/>
    </vehicle>
    <vehicle id="bike47" type="bike_bicycle" depart="33.34" departLane="best">
        <route edges="1068144846#0 1068144846#1 1068144846#2 985133427 1337646270 1298335702 -515123442#4 -515123442#3 -515123442#2 -515123442#1 -515123442#0 -511404874#1 -511404874#0 -178702258#2 -178702258#1 -178702258#0 -666886084#1 -666886084#0 666886084#0"/>
    </vehicle>
    <vehicle id="bike48" type="bike_bicycle" depart="34.05" departLane="best">
        <route edges="47087993#6 -1068144845#4 -1068144845#3 -1068144845#2 -1068144845#1 -1068144845#0 -1332638368#2 -1332638368#1 -1332638368#0 -14924729#3 -14924729#2 -14924729#1 -8887999#2 -8887999#1 -8887999#0 967993112#1 511405572 1214520071 1214520072 511187811 -178702258#2 -178702258#1 -178702258#0 511404872 39838630#1 39838630#2 -39838630#2"/>
    </vehicle>
    <vehicle id="bike49" type="bike_bicycle" depart="34.76" departLane="best">
        <route edges="116783785#1 116783785#2 116783785#3 116783785#4 -116783805#1 -116783909#8 -116783909#7 -116783909#6 -116783909#5 -116783909#4 -40036062#0 490474063#0 490474063#1 490474063#2 490474063#3 490474063#4 490474063#5 490474063#6 490474063#7 490474063#8 15419875#0 15419875#1 39921192#0 39921192#1 488788626#0 488788626#1 488788626#2 488788626#3 178699054 465144361 1235754993#0 1235754993#1 421846558#0 421846558#1 178723097#0 178723097#1 1338361263 1100626088 653860562 1201484855 1131969257 -449565665#3 -449565665#2 -449565665#1 -449565665#0 -39366819#1 -39366819#0 -521701857 -521705694#1 -521705694#0 -405382146#1 -405382146#0 -428730800 -1067928305#2 -1067928305#1 -1211970166#12 -1211970166#11 -1211970166#10 -1211970166#9 -1211970166#8 -1211970166#7 -1211970166#6 -1211970166#5 -1211970166#4 -1211978027#0"/>
    </vehicle>
    <vehicle id="bike50" type="bike_bicycle" depart="35.46" departLane="best">
        <route edges="50323229#13 50323229#14 50323229#15 -40109290#1 -40109290#0 1254633077#1 1273251152 1273251151 33683458#0 33683458#1 33683458#2 1272337501 -10748045#2 -10748045#1 -10748045#0 -1254816452 654297635#0 654297635#1 654297633 238219441#0 238219441#1 238219441#2 -1125986385#1 -1125986385#0 -10250021#4 -10250021#3 -10250021#2 -10250021#0 1125986377#0 -10628442#1 -10628442#0 1260485929#2 1260485929#3 1292541108 968332509 1214520079 1068434202 1332638391#0 1332638391#1 1332638391#2 14924729#0 14924729#1 14924729#2 14924729#3 47225638#0"/>
    </vehicle>
    <vehicle id="bike51" type="bike_bicycle" depart="36.17" departLane="best" departSpeed="max">
        <route edges="116837693 116837540#4 116837540#5 40109290#3 -116831881#13 -116831881#11 -116831881#10 -116831881#9 -116837560"/>
    </vehicle>
    <vehicle id="bike52" type="bike_bicycle" depart="36.88" departLane="best">
        <route edges="39838691#2 -39838657#3 -39838657#2 -39838657#1 -39838657#0 39366819#1 449565665#0 449565665#1 449565665#2 449565665#3 10628430 1125986386 513272949 39838530 511409187 147711065#0 147711065#1 147711065#2 1068916338 488788637#0 488788637#1 1125986379#0 1125986379#1 654297631 654297632#0 654297632#2 499566577#0 499566577#1 1335304371 475044040#1 475044040#2 475044040#3 475044040#4 1323097575#1 1323097575#2 1323097575#3 40036062#0 116783909#4 116783909#5 116783834#1"/>
    </vehicle>
    <vehicle id="bike53" type="bike_bicycle" depart="37.59" departLane="best">
        <route edges="39920550#1 39920550#2 39920550#3 39920550#4 116783871 39920684#4 39920684#5 39920684#6 -40035325#0 -39920593#2 -39920593#1 -39920593#0 -1323097576 -40036062#1 116783909#4 116783909#5 116783909#6 116783909#7 116783909#8 116783805#1 116783805#2"/>
    </vehicle>
    <vehicle id="bike54" type="bike_bicycle" depart="38.30" departLane="best">
        <route edges="-1015424647#1"/>
    </vehicle>
    <vehicle id="bike55" type="bike_bicycle" depart="39.01" departLane="best">
        <route edges="-1068916335 -39921531 9374529#1 1204070283#0 1204070283#1 1125986406#0 1125986406#1 654297630 488788629 479863106#0 479863106#1 47224973 1214520077 -511187813#4 -511187813#3 -511409188#0 -509524271 -478286980#1 -478286980#0 -967985512 -515124965#2 -515124965#1 -1337646270 515123439"/>
    </vehicle>
    <vehicle id="bike56" type="bike_bicycle" depart="39.72" departLane="best">
        <route edges="47157282#1 488788626#0 488788626#1 488788626#2 488788626#3 178699054 465144361 1235754993#0 1235754993#1 421846558#0 421846558#1 178723097#0 178723097#1 1338361263 1100626088 653860562 1201484855 1131969257 -449565665#3 -449565665#2 -449565665#1 -449565665#0 -39366819#1 39838657#0 39838657#1 440024343#0 440024351#0 440024351#1 440024351#2 440024351#3 449881606"/>
    </vehicle>
    <vehicle id="bike57" type="bike_bicycle" depart="40.43" departLane="best" departSpeed="max">
        <route edges="-451068216 451068213#3 451068220#0 -451068221#1 -451068222 -449565666 39838691#7 39838691#8 39838691#9 39838691#10 -654297629#3 -654297629#2 -654297629#1 -654297629#0 -1074409256#2 -1074409256#0 -1074771160 -24576913#2 -24576913#1 -24576913#0 -1131969257 -1201484855 -653860562 -1100626088 -1338361263 -178723097#1 -178723097#0 71269779 -178699051#1 -178699051#0 1067852461 47157282#0 47157282#1 1237953497 1324405511 1335304375 1335304374 -40035325#2 -116783809#7 -116783780#3 -116783780#2 -116783793"/>
    </vehicle>
    <vehicle id="bike58" type="bike_bicycle" depart="41.14" departLane="best" departSpeed="max">
        <route edges="-116831879#1 -116831881#5 -116831881#4 116831889#0 116831889#1 -50323229#3 -50323229#2 -50323229#0 10629709#1 10629709#2 1272337498#0 1064476620#0 1064476620#1 1064476620#2 1064476620#3 1068074793"/>
    </vehicle>
    <vehicle id="bike59" type="bike_bicycle" depart="41.85" departLane="best">
        <route edges="-116783892#1 116783892#1 116783892#2 116783885#2 1323097579#1 1323097579#2 11631594#0 11631594#1 11631594#2 11631594#3 -1100626103#3 -1100626103#2 24621218#0 24621218#1 24621218#2 24621218#3 474143552#1 474143552#2 474143552#3 39920684#3 39920684#4"/>
    </vehicle>
    <vehicle id="bike60" type="bike_bicycle" depart="42.56" departLane="best">
        <route edges="39838751#1 -39838751#1 -39838751#0 1125986386 513272949 39838530 511409187 147711065#0 147711065#1 147711065#2 1068916338 488788637#0 488788637#1 1125986379#0 1125986379#1 654297631 654297632#0 654297632#2 499566577#0 499566577#1 1335304371 475044040#1 475044040#2 475044040#3 475044040#4 -33683458#2 -33683458#1 -33683458#0 33683346#0 33683346#1 33683346#2 116831463#0 -116831462"/>
    </vehicle>
    <vehicle id="bike61" type="bike_bicycle" depart="43.27" departLane="best">
        <route edges="1125986373#0 1125986373#1 1125986373#2 1125986373#3 654297637#0 654297637#1 654297637#2 654297636 1254816452 10748045#0 10748045#1 10748045#2 1323097575#0 1323097575#1 1323097575#2 1323097575#3 490474063#0 490474063#1 490474063#2 490474063#3 490474063#4 490474063#5 490474063#6 490474063#7 490474063#8 15419875#0 15419875#1 39921192#0 39921192#1 -474143552#6 -474143552#5 -474143552#4 -474143552#3 -474143552#2 -474143552#1 -474143552#0 1323097579#0 -116783885#2 116783892#3 116783892#4"/>
    </vehicle>
    <vehicle id="bike62" type="bike_bicycle" depart="43.98" departLane="best">
        <route edges="-436110595#1 -436110595#0 1068144848#1 1068144847 1068144846#0 1068144846#1 1068144846#2 -515130025 -515130026#1 515126304 -515126385#3 -1303832509 -1303832503#0 -1067928305#1 -1211970166#12 -1211970166#11 -1211970166#10 -1211970166#9 -1211970166#8 -1211970166#7 -1211970166#6 -1211970166#5 -1211970166#4 -1211970166#3 -1211970166#2 -1211970166#1 -1211970166#0 -1067928307#0 240666069#0 -413789558#1 47267007#0"/>
    </vehicle>
    <vehicle id="bike63" type="bike_bicycle" depart="44.69" departLane="best">
        <route edges="-856175964 1231065643 856175963 511185049 1222181936 1222181935 1068434205 1068434204 511187823 1068434258 1214520072 511187811 511404874#0 511404874#1 515123442#0 515123442#1 515123442#2 515123442#3 515123442#4 666886081 515126385#0 515126385#1 515126385#2 -1303832509 -1303832503#0 -1067928305#1 -1211970166#12 -1211970166#11 -1211970166#10 -1211970166#9 -1211970166#8 -1211970166#7 -1211970166#6 -1211970166#5 -1211970166#4 -1211970166#3 -1211970166#2 -1211970166#1 -1211970166#0 1067928307#2 1067928307#3 488788630#0 488788630#1 488788630#2 -1326094888"/>
    </vehicle>
    <vehicle id="bike64" type="bike_bicycle" depart="45.39" departLane="best" departSpeed="max">
        <route edges="116783870 116783873#0 116783873#2 116783801#1 39920011#2 39920011#3 -967985513#1 -967985513#0 -1100626103#3 -1100626103#2 -1100626103#1 -1100626103#0 -1235501862 -40297647#2 -40297647#1 -40297647#0 178699054 465144361 1235754993#0 1235754993#1 421846558#0 421846558#1 178723097#0 178723097#1 1338361263 1100626088 653860562 1201484855 1131969257 24576913#0 24576913#1 24576913#2 1074771160 1074409256#0 1074409256#2 39838520#0"/>
    </vehicle>
    <vehicle id="bike65" type="bike_bicycle" depart="46.10" departLane="best">
        <route edges="-33683458#1"/>
    </vehicle>
    <vehicle id="bike66" type="bike_bicycle" depart="46.81" departLane="best">
        <route edges="967985513#3 -967985513#3 -967985513#2 -967985513#1 -967985513#0 -1100626103#3 -1100626103#2 -1100626103#1 -1100626103#0 -1235501862 -40297647#2 -40297647#1 -40297647#0 178699054 1064476624 178699051#0 178699051#1 985133430 511404873#0 511404873#1 513272950#0 513272950#1 666886082#0 666886082#1 509524230 1298335704#0 1298335704#1"/>
    </vehicle>
    <vehicle id="bike67" type="bike_bicycle" depart="47.52" departLane="best">